*SPEF "ieee 1481-1999"
*DESIGN "dig"
*DATE "20:11:06 Saturday April 05, 2025"
*VENDOR "The OpenROAD Project"
*PROGRAM "OpenROAD"
*VERSION "edf00dff99f6c40d67a30c0e22a8191c5d2ed9d6"
*DESIGN_FLOW "NAME_SCOPE LOCAL" "PIN_CAP NONE"
*DIVIDER /
*DELIMITER :
*BUS_DELIMITER []
*T_UNIT 1 NS
*C_UNIT 1 PF
*R_UNIT 1 OHM
*L_UNIT 1 HENRY

*NAME_MAP
*3 clk
*4 counter_out[0]
*5 counter_out[1]
*6 counter_out[2]
*7 counter_out[3]
*8 counter_out[4]
*9 counter_out[5]
*10 counter_out[6]
*11 counter_out[7]
*12 trigger
*13 _00_
*14 _01_
*15 _02_
*16 _03_
*17 _04_
*18 _05_
*19 _06_
*20 _07_
*21 _08_
*22 _09_
*23 _10_
*24 _11_
*25 _12_
*26 _13_
*27 _14_
*28 _15_
*29 _16_
*30 _17_
*31 _18_
*32 _19_
*33 _20_
*34 _21_
*35 _22_
*36 _23_
*37 _24_
*38 _25_
*39 _26_
*40 _27_
*41 _28_
*42 _29_
*43 _30_
*44 clknet_0_clk
*45 clknet_1_0__leaf_clk
*46 clknet_1_1__leaf_clk
*47 counter\[0\]
*48 counter\[1\]
*49 counter\[2\]
*50 counter\[3\]
*51 counter\[4\]
*52 counter\[5\]
*53 counter\[6\]
*54 counter\[7\]
*55 net1
*56 net10
*57 net11
*58 net12
*59 net13
*60 net14
*61 net15
*62 net16
*63 net17
*64 net18
*65 net19
*66 net2
*67 net20
*68 net21
*69 net22
*70 net23
*71 net24
*72 net25
*73 net26
*74 net27
*75 net28
*76 net3
*77 net4
*78 net5
*79 net6
*80 net7
*81 net8
*82 net9
*83 trigger_prev
*84 FILLER_0_12
*85 FILLER_0_15
*86 FILLER_0_18
*87 FILLER_0_29
*88 FILLER_0_3
*89 FILLER_0_53
*90 FILLER_0_57
*91 FILLER_0_6
*92 FILLER_0_69
*93 FILLER_0_9
*94 FILLER_10_29
*95 FILLER_10_3
*96 FILLER_11_12
*97 FILLER_11_3
*98 FILLER_11_39
*99 FILLER_11_57
*100 FILLER_11_6
*101 FILLER_11_9
*102 FILLER_12_12
*103 FILLER_12_15
*104 FILLER_12_29
*105 FILLER_12_57
*106 FILLER_12_6
*107 FILLER_12_73
*108 FILLER_12_9
*109 FILLER_1_12
*110 FILLER_1_15
*111 FILLER_1_3
*112 FILLER_1_6
*113 FILLER_1_73
*114 FILLER_1_9
*115 FILLER_2_29
*116 FILLER_2_3
*117 FILLER_2_52
*118 FILLER_2_6
*119 FILLER_2_69
*120 FILLER_2_9
*121 FILLER_3_12
*122 FILLER_3_3
*123 FILLER_3_30
*124 FILLER_3_6
*125 FILLER_3_73
*126 FILLER_3_9
*127 FILLER_4_12
*128 FILLER_4_3
*129 FILLER_4_49
*130 FILLER_4_6
*131 FILLER_4_70
*132 FILLER_4_9
*133 FILLER_5_12
*134 FILLER_5_15
*135 FILLER_5_28
*136 FILLER_5_3
*137 FILLER_5_47
*138 FILLER_5_6
*139 FILLER_5_74
*140 FILLER_5_9
*141 FILLER_6_12
*142 FILLER_6_15
*143 FILLER_6_18
*144 FILLER_6_21
*145 FILLER_6_29
*146 FILLER_6_3
*147 FILLER_6_52
*148 FILLER_6_6
*149 FILLER_6_70
*150 FILLER_6_9
*151 FILLER_7_12
*152 FILLER_7_3
*153 FILLER_7_39
*154 FILLER_7_6
*155 FILLER_7_73
*156 FILLER_7_9
*157 FILLER_8_29
*158 FILLER_8_3
*159 FILLER_8_49
*160 FILLER_8_6
*161 FILLER_9_12
*162 FILLER_9_3
*163 FILLER_9_6
*164 FILLER_9_73
*165 FILLER_9_9
*166 PHY_EDGE_ROW_0_Left_13
*167 PHY_EDGE_ROW_0_Right_0
*168 PHY_EDGE_ROW_10_Left_23
*169 PHY_EDGE_ROW_10_Right_10
*170 PHY_EDGE_ROW_11_Left_24
*171 PHY_EDGE_ROW_11_Right_11
*172 PHY_EDGE_ROW_12_Left_25
*173 PHY_EDGE_ROW_12_Right_12
*174 PHY_EDGE_ROW_1_Left_14
*175 PHY_EDGE_ROW_1_Right_1
*176 PHY_EDGE_ROW_2_Left_15
*177 PHY_EDGE_ROW_2_Right_2
*178 PHY_EDGE_ROW_3_Left_16
*179 PHY_EDGE_ROW_3_Right_3
*180 PHY_EDGE_ROW_4_Left_17
*181 PHY_EDGE_ROW_4_Right_4
*182 PHY_EDGE_ROW_5_Left_18
*183 PHY_EDGE_ROW_5_Right_5
*184 PHY_EDGE_ROW_6_Left_19
*185 PHY_EDGE_ROW_6_Right_6
*186 PHY_EDGE_ROW_7_Left_20
*187 PHY_EDGE_ROW_7_Right_7
*188 PHY_EDGE_ROW_8_Left_21
*189 PHY_EDGE_ROW_8_Right_8
*190 PHY_EDGE_ROW_9_Left_22
*191 PHY_EDGE_ROW_9_Right_9
*192 TAP_TAPCELL_ROW_0_26
*193 TAP_TAPCELL_ROW_0_27
*194 TAP_TAPCELL_ROW_10_37
*195 TAP_TAPCELL_ROW_11_38
*196 TAP_TAPCELL_ROW_12_39
*197 TAP_TAPCELL_ROW_12_40
*198 TAP_TAPCELL_ROW_1_28
*199 TAP_TAPCELL_ROW_2_29
*200 TAP_TAPCELL_ROW_3_30
*201 TAP_TAPCELL_ROW_4_31
*202 TAP_TAPCELL_ROW_5_32
*203 TAP_TAPCELL_ROW_6_33
*204 TAP_TAPCELL_ROW_7_34
*205 TAP_TAPCELL_ROW_8_35
*206 TAP_TAPCELL_ROW_9_36
*207 _31_
*208 _32_
*209 _33_
*210 _34_
*211 _35_
*212 _36_
*213 _37_
*214 _38_
*215 _39_
*216 _40_
*217 _41_
*218 _42_
*219 _43_
*220 _44_
*221 _45_
*222 _46_
*223 _47_
*224 _48_
*225 _49_
*226 _50_
*227 _51_
*228 _52_
*229 _53_
*230 _54_
*231 _55_
*232 _56_
*233 _57_
*234 _58_
*235 _59_
*236 _60_
*237 _61_
*238 _62_
*239 _63_
*240 _64_
*241 _65_
*242 _66_
*243 _67_
*244 _68_
*245 _69_
*246 _70_
*247 _71_
*248 _72_
*249 _73_
*250 _74_
*251 _75_
*252 _76_
*253 _77_
*254 _78_
*255 clkbuf_0_clk
*256 clkbuf_1_0__f_clk
*257 clkbuf_1_1__f_clk
*258 clkload0
*259 hold1
*260 hold10
*261 hold11
*262 hold12
*263 hold13
*264 hold14
*265 hold15
*266 hold16
*267 hold17
*268 hold18
*269 hold19
*270 hold2
*271 hold3
*272 hold4
*273 hold5
*274 hold6
*275 hold7
*276 hold8
*277 hold9
*278 input1
*279 output2
*280 output3
*281 output4
*282 output5
*283 output6
*284 output7
*285 output8
*286 output9

*PORTS
clk I
counter_out[0] O
counter_out[1] O
counter_out[2] O
counter_out[3] O
counter_out[4] O
counter_out[5] O
counter_out[6] O
counter_out[7] O
trigger I

*D_NET *3 0.0040388
*CONN
*P clk I
*I *255:A I *D sky130_fd_sc_hd__clkbuf_16
*CAP
1 clk 0.00166941
2 *255:A 0.00166941
3 *255:A *211:B1 0
4 *255:A *213:C 9.17495e-05
5 *255:A *214:A1 0.000146474
6 *255:A *220:A1 2.8266e-06
7 *255:A *241:CLK 0.000164725
8 *255:A *241:D 0.000150625
9 *255:A *260:A 4.43184e-05
10 *255:A *47:33 6.60156e-05
11 *255:A *47:106 3.32354e-05
12 *255:A *48:75 0
*RES
1 clk *255:A 32.6592 
*END

*D_NET *4 0.00460182
*CONN
*P counter_out[0] O
*I *279:X O *D sky130_fd_sc_hd__buf_2
*CAP
1 counter_out[0] 0.000425522
2 *279:X 0.00187539
3 *4:16 0.00230091
4 counter_out[0] counter_out[1] 0
*RES
1 *279:X *4:16 47.0589 
2 *4:16 counter_out[0] 4.8388 
*END

*D_NET *5 0.00364144
*CONN
*P counter_out[1] O
*I *280:X O *D sky130_fd_sc_hd__buf_2
*CAP
1 counter_out[1] 0.00100224
2 *280:X 0.00100224
3 counter_out[1] counter_out[2] 0.000359086
4 counter_out[1] counter_out[3] 0.00029513
5 counter_out[1] *249:CLK 9.80173e-05
6 counter_out[1] *249:D 9.14355e-05
7 counter_out[1] *270:A 0.000167907
8 counter_out[1] *281:A 0.000344917
9 counter_out[1] *282:A 8.17615e-05
10 counter_out[1] *77:10 0.000198698
11 counter_out[0] counter_out[1] 0
*RES
1 *280:X counter_out[1] 37.0527 
*END

*D_NET *6 0.0011452
*CONN
*P counter_out[2] O
*I *281:X O *D sky130_fd_sc_hd__buf_2
*CAP
1 counter_out[2] 0.000393055
2 *281:X 0.000393055
3 counter_out[2] counter_out[3] 0
4 counter_out[1] counter_out[2] 0.000359086
*RES
1 *281:X counter_out[2] 22.4449 
*END

*D_NET *7 0.00133176
*CONN
*P counter_out[3] O
*I *282:X O *D sky130_fd_sc_hd__buf_2
*CAP
1 counter_out[3] 0.000447899
2 *282:X 0.000447899
3 counter_out[3] counter_out[4] 6.39829e-05
4 counter_out[3] *282:A 0
5 counter_out[3] *283:A 7.68486e-05
6 counter_out[1] counter_out[3] 0.00029513
7 counter_out[2] counter_out[3] 0
*RES
1 *282:X counter_out[3] 23.6592 
*END

*D_NET *8 0.00144255
*CONN
*P counter_out[4] O
*I *283:X O *D sky130_fd_sc_hd__buf_2
*CAP
1 counter_out[4] 0.000546326
2 *283:X 0.000546326
3 counter_out[4] counter_out[5] 0.000167209
4 counter_out[4] *283:A 0.00011871
5 counter_out[3] counter_out[4] 6.39829e-05
*RES
1 *283:X counter_out[4] 25.3371 
*END

*D_NET *9 0.00153662
*CONN
*P counter_out[5] O
*I *284:X O *D sky130_fd_sc_hd__buf_2
*CAP
1 counter_out[5] 0.000641993
2 *284:X 0.000641993
3 counter_out[5] counter_out[6] 0
4 counter_out[5] *234:A0 6.8646e-06
5 counter_out[5] *234:A1 3.92854e-05
6 counter_out[5] *273:A 0
7 counter_out[5] *283:A 3.92757e-05
8 counter_out[5] *43:32 0
9 counter_out[5] *43:38 0
10 counter_out[5] *82:12 0
11 counter_out[4] counter_out[5] 0.000167209
*RES
1 *284:X counter_out[5] 26.0878 
*END

*D_NET *10 0.00525892
*CONN
*P counter_out[6] O
*I *285:X O *D sky130_fd_sc_hd__buf_2
*CAP
1 counter_out[6] 0.00179874
2 *285:X 0.00179874
3 counter_out[6] counter_out[7] 0
4 counter_out[6] *227:A1 0.000580364
5 counter_out[6] *227:B1_N 5.41494e-05
6 counter_out[6] *228:B1 7.49387e-06
7 counter_out[6] *276:A 0.000970384
8 counter_out[6] *55:14 1.40306e-05
9 counter_out[6] *71:18 3.50181e-05
10 counter_out[5] counter_out[6] 0
*RES
1 *285:X counter_out[6] 37.4156 
*END

*D_NET *11 0.0011167
*CONN
*P counter_out[7] O
*I *286:X O *D sky130_fd_sc_hd__buf_2
*CAP
1 counter_out[7] 0.000558349
2 *286:X 0.000558349
3 counter_out[6] counter_out[7] 0
*RES
1 *286:X counter_out[7] 23.8033 
*END

*D_NET *12 0.000700161
*CONN
*P trigger I
*I *278:A I *D sky130_fd_sc_hd__buf_1
*CAP
1 trigger 0.00035008
2 *278:A 0.00035008
*RES
1 trigger *278:A 21.6946 
*END

*D_NET *13 0.000748384
*CONN
*I *238:D I *D sky130_fd_sc_hd__dfxtp_1
*I *208:X O *D sky130_fd_sc_hd__and2b_1
*CAP
1 *238:D 0.000251157
2 *208:X 0.000251157
3 *238:D *238:CLK 3.17067e-05
4 *238:D *239:CLK 6.5185e-05
5 *238:D *29:28 0.000133456
6 *238:D *45:27 1.57226e-05
*RES
1 *208:X *238:D 33.408 
*END

*D_NET *14 0.000901617
*CONN
*I *239:D I *D sky130_fd_sc_hd__dfxtp_1
*I *210:X O *D sky130_fd_sc_hd__o21a_1
*CAP
1 *239:D 0.000331145
2 *210:X 0.000331145
3 *239:D *210:B1 8.79872e-05
4 *239:D *29:26 0
5 *239:D *29:28 0
6 *239:D *48:27 0.00015134
*RES
1 *210:X *239:D 33.8902 
*END

*D_NET *15 0.00126969
*CONN
*I *240:D I *D sky130_fd_sc_hd__dfxtp_1
*I *213:X O *D sky130_fd_sc_hd__and3_1
*CAP
1 *240:D 0.000263216
2 *213:X 0.000263216
3 *240:D *213:B 5.52238e-05
4 *240:D *213:C 0.000310172
5 *240:D *279:A 0
6 *240:D *45:16 0.000126934
7 *240:D *45:27 1.82657e-05
8 *240:D *47:10 0.000175519
9 *240:D *48:37 5.71472e-05
*RES
1 *213:X *240:D 34.2473 
*END

*D_NET *16 0.00173464
*CONN
*I *241:D I *D sky130_fd_sc_hd__dfxtp_1
*I *217:X O *D sky130_fd_sc_hd__and3_1
*CAP
1 *241:D 0.00035451
2 *217:X 0.00035451
3 *241:D *210:A1 0.0001827
4 *241:D *210:A2 5.52238e-05
5 *241:D *212:C 0.000175691
6 *241:D *217:B 0.000227071
7 *241:D *241:CLK 0.000129248
8 *241:D *270:A 9.96422e-06
9 *241:D *47:106 8.00806e-05
10 *241:D *48:75 1.50181e-05
11 *255:A *241:D 0.000150625
*RES
1 *217:X *241:D 36.2964 
*END

*D_NET *17 0.000533875
*CONN
*I *267:A I *D sky130_fd_sc_hd__dlygate4sd3_1
*I *219:Y O *D sky130_fd_sc_hd__a21oi_1
*CAP
1 *267:A 0.000134658
2 *219:Y 0.000134658
3 *267:A *218:A2 2.89114e-05
4 *267:A *219:A1 1.59782e-05
5 *267:A *219:B1 0.000103253
6 *267:A *29:22 0.000116417
7 *267:A *34:68 0
*RES
1 *219:Y *267:A 30.9929 
*END

*D_NET *18 0.000932229
*CONN
*I *243:D I *D sky130_fd_sc_hd__dfxtp_1
*I *223:Y O *D sky130_fd_sc_hd__nor2_1
*CAP
1 *243:D 0.000161995
2 *223:Y 0.000161995
3 *243:D *223:A 1.38826e-05
4 *243:D *223:B 0.000340073
5 *243:D *243:CLK 1.64343e-05
6 *243:D *254:CLK 0.000148911
7 *243:D *55:18 8.89385e-05
*RES
1 *223:Y *243:D 32.6759 
*END

*D_NET *19 0.00200923
*CONN
*I *244:D I *D sky130_fd_sc_hd__dfxtp_1
*I *226:Y O *D sky130_fd_sc_hd__nor2_1
*CAP
1 *244:D 0.000373785
2 *226:Y 0.000373785
3 *244:D *207:B 5.58941e-05
4 *244:D *223:B 1.38323e-05
5 *244:D *224:A 0.000427976
6 *244:D *229:A_N 0.000130579
7 *244:D *244:CLK 5.33005e-05
8 *244:D *29:14 0.000175571
9 *244:D *38:10 5.67278e-05
10 *244:D *40:6 2.55587e-05
11 *244:D *43:6 0.000139913
12 *244:D *46:33 7.1287e-05
13 *244:D *51:21 3.17148e-05
14 *244:D *51:25 5.33005e-05
15 *244:D *52:10 2.60064e-05
*RES
1 *226:Y *244:D 38.408 
*END

*D_NET *20 0.00156895
*CONN
*I *245:D I *D sky130_fd_sc_hd__dfxtp_1
*I *228:X O *D sky130_fd_sc_hd__o21a_1
*CAP
1 *245:D 0.000528232
2 *228:X 0.000528232
3 *245:D *224:A 0.000171375
4 *245:D *224:B 2.21179e-05
5 *245:D *225:A1 0
6 *245:D *228:A2 2.93922e-05
7 *245:D *228:B1 9.99853e-05
8 *245:D *235:A0 4.7724e-05
9 *245:D *257:A 0.000128161
10 *245:D *38:10 0
11 *245:D *53:12 0
12 *245:D *53:25 1.37292e-05
13 *245:D *71:18 0
*RES
1 *228:X *245:D 37.3723 
*END

*D_NET *21 0.000279503
*CONN
*I *246:D I *D sky130_fd_sc_hd__dfxtp_1
*I *230:X O *D sky130_fd_sc_hd__mux2_1
*CAP
1 *246:D 0.000129096
2 *230:X 0.000129096
3 *246:D *230:A1 4.87669e-06
4 *246:D *43:44 0
5 *246:D *43:48 0
6 *246:D *66:20 1.64343e-05
*RES
1 *230:X *246:D 29.7116 
*END

*D_NET *22 0.0010418
*CONN
*I *247:D I *D sky130_fd_sc_hd__dfxtp_1
*I *231:X O *D sky130_fd_sc_hd__mux2_1
*CAP
1 *247:D 0.000237949
2 *231:X 0.000237949
3 *247:D *246:CLK 4.08637e-05
4 *247:D *260:A 0.000166007
5 *247:D *264:A 0
6 *247:D *43:44 0.000159689
7 *247:D *43:48 0.000125724
8 *247:D *45:67 5.33005e-05
9 *247:D *76:8 2.03169e-05
*RES
1 *231:X *247:D 32.9973 
*END

*D_NET *23 0.000765334
*CONN
*I *261:A I *D sky130_fd_sc_hd__dlygate4sd3_1
*I *232:X O *D sky130_fd_sc_hd__mux2_1
*CAP
1 *261:A 7.43567e-05
2 *232:X 7.43567e-05
3 *261:A *230:A1 0.000313474
4 *261:A *66:20 0.000303147
*RES
1 *232:X *261:A 22.0286 
*END

*D_NET *24 0.000725332
*CONN
*I *271:A I *D sky130_fd_sc_hd__dlygate4sd3_1
*I *233:X O *D sky130_fd_sc_hd__mux2_1
*CAP
1 *271:A 0.000131402
2 *233:X 0.000131402
3 *271:A *233:A0 5.12829e-05
4 *271:A *233:A1 0.000227526
5 *271:A *43:44 0.00018372
*RES
1 *233:X *271:A 22.4393 
*END

*D_NET *25 0.00135626
*CONN
*I *273:A I *D sky130_fd_sc_hd__dlygate4sd3_1
*I *234:X O *D sky130_fd_sc_hd__mux2_1
*CAP
1 *273:A 0.000455685
2 *234:X 0.000455685
3 *273:A *234:A0 9.91086e-05
4 *273:A *234:S 5.41494e-05
5 *273:A *250:D 0.000123409
6 *273:A *283:A 0.000168226
7 *273:A *43:38 0
8 *273:A *80:12 0
9 counter_out[5] *273:A 0
*RES
1 *234:X *273:A 36.8143 
*END

*D_NET *26 0.00145519
*CONN
*I *263:A I *D sky130_fd_sc_hd__dlygate4sd3_1
*I *235:X O *D sky130_fd_sc_hd__mux2_1
*CAP
1 *263:A 0.000299177
2 *235:X 0.000299177
3 *263:A *214:B1 0
4 *263:A *222:B 0
5 *263:A *224:D 0
6 *263:A *235:A1 0.000564133
7 *263:A *251:D 0.000292708
8 *263:A *43:38 0
*RES
1 *235:X *263:A 36.2786 
*END

*D_NET *27 0.000114192
*CONN
*I *275:A I *D sky130_fd_sc_hd__dlygate4sd3_1
*I *236:X O *D sky130_fd_sc_hd__mux2_1
*CAP
1 *275:A 5.70959e-05
2 *236:X 5.70959e-05
*RES
1 *236:X *275:A 19.5643 
*END

*D_NET *28 0.00133925
*CONN
*I *277:A I *D sky130_fd_sc_hd__dlygate4sd3_1
*I *237:X O *D sky130_fd_sc_hd__mux2_1
*CAP
1 *277:A 0.000168644
2 *237:X 0.000168644
3 *277:A *236:A0 0.000493352
4 *277:A *236:A1 0
5 *277:A *237:S 0
6 *277:A *43:21 0.000451463
7 *277:A *43:30 5.71472e-05
*RES
1 *237:X *277:A 33.8857 
*END

*D_NET *29 0.00938248
*CONN
*I *222:A I *D sky130_fd_sc_hd__nand2_1
*I *225:B1 I *D sky130_fd_sc_hd__o21ai_1
*I *227:B1_N I *D sky130_fd_sc_hd__a21boi_1
*I *218:B1 I *D sky130_fd_sc_hd__o21ai_1
*I *217:A I *D sky130_fd_sc_hd__and3_1
*I *208:B I *D sky130_fd_sc_hd__and2b_1
*I *209:B1_N I *D sky130_fd_sc_hd__a21boi_1
*I *213:A I *D sky130_fd_sc_hd__and3_1
*I *207:Y O *D sky130_fd_sc_hd__nand2b_2
*CAP
1 *222:A 0.000637975
2 *225:B1 0.00013935
3 *227:B1_N 0.000145591
4 *218:B1 0
5 *217:A 0
6 *208:B 4.00453e-05
7 *209:B1_N 0
8 *213:A 0.000328046
9 *207:Y 0
10 *29:67 0.000424331
11 *29:28 0.00071897
12 *29:26 0.000594329
13 *29:22 0.00067318
14 *29:14 0.00096994
15 *29:6 0.000599509
16 *29:4 0.000637975
17 *213:A *279:A 5.71472e-05
18 *213:A *48:37 0
19 *222:A *223:B 0.000305896
20 *222:A *224:A 0.000137983
21 *222:A *242:CLK 9.25014e-06
22 *222:A *38:10 0.000114838
23 *222:A *46:33 0.000443362
24 *222:A *46:65 0.000197984
25 *222:A *83:8 5.33005e-05
26 *225:B1 *223:A 4.16955e-06
27 *225:B1 *227:A1 9.90431e-05
28 *225:B1 *227:A2 5.33005e-05
29 *225:B1 *228:A2 5.33005e-05
30 *225:B1 *285:A 0
31 *225:B1 *40:19 6.7848e-05
32 *227:B1_N *228:B1 1.24368e-05
33 *227:B1_N *285:A 0
34 *227:B1_N *55:14 0
35 *29:14 *207:B 3.34295e-05
36 *29:14 *218:A1 7.33724e-05
37 *29:14 *219:A1 2.14757e-05
38 *29:14 *223:B 0.00040279
39 *29:14 *224:B 0.000275101
40 *29:14 *52:10 0.000101545
41 *29:22 *218:A2 9.24491e-05
42 *29:22 *223:B 0
43 *29:22 *34:68 0
44 *29:26 *210:B1 0
45 *29:28 *48:27 0
46 *29:28 *48:37 0
47 *29:67 *207:B 3.17148e-05
48 *29:67 *223:A 2.46553e-05
49 *29:67 *224:B 0.00015005
50 *29:67 *229:A_N 0.000162862
51 *29:67 *38:10 0
52 *29:67 *40:19 1.43349e-05
53 *29:67 *55:14 0
54 *29:67 *55:18 0
55 counter_out[6] *227:B1_N 5.41494e-05
56 *238:D *29:28 0.000133456
57 *239:D *29:26 0
58 *239:D *29:28 0
59 *244:D *29:14 0.000175571
60 *267:A *29:22 0.000116417
*RES
1 *207:Y *29:4 9.3 
2 *29:4 *29:6 4.5 
3 *29:6 *29:14 15.8929 
4 *29:14 *29:22 18.6964 
5 *29:22 *29:26 7.05357 
6 *29:26 *29:28 8.01786 
7 *29:28 *213:A 19.2464 
8 *29:28 *209:B1_N 13.8 
9 *29:26 *208:B 14.3357 
10 *29:22 *217:A 9.3 
11 *29:14 *218:B1 9.3 
12 *29:6 *29:67 3.91964 
13 *29:67 *227:B1_N 16.5768 
14 *29:67 *225:B1 16.8804 
15 *29:4 *222:A 32.175 
*END

*D_NET *30 0.00174279
*CONN
*I *210:B1 I *D sky130_fd_sc_hd__o21a_1
*I *209:Y O *D sky130_fd_sc_hd__a21boi_1
*CAP
1 *210:B1 0.000441614
2 *209:Y 0.000441614
3 *210:B1 *209:A1 2.58706e-05
4 *210:B1 *209:A2 2.89016e-05
5 *210:B1 *210:A2 2.79092e-05
6 *210:B1 *47:10 6.58195e-05
7 *210:B1 *47:76 0.000129314
8 *210:B1 *48:27 0.000487714
9 *210:B1 *48:75 0
10 *210:B1 *66:20 6.05161e-06
11 *239:D *210:B1 8.79872e-05
12 *29:26 *210:B1 0
*RES
1 *209:Y *210:B1 38.6 
*END

*D_NET *31 0.000467599
*CONN
*I *213:B I *D sky130_fd_sc_hd__and3_1
*I *211:X O *D sky130_fd_sc_hd__a21o_1
*CAP
1 *213:B 0.000159593
2 *211:X 0.000159593
3 *213:B *48:37 9.31893e-05
4 *240:D *213:B 5.52238e-05
*RES
1 *211:X *213:B 20.7786 
*END

*D_NET *32 0.00190171
*CONN
*I *213:C I *D sky130_fd_sc_hd__and3_1
*I *212:Y O *D sky130_fd_sc_hd__nand3_1
*CAP
1 *213:C 0.000409333
2 *212:Y 0.000409333
3 *213:C *241:CLK 0.000270236
4 *213:C *279:A 0
5 *213:C *47:10 4.23086e-05
6 *213:C *47:33 7.93806e-05
7 *213:C *47:76 0.000117135
8 *213:C *48:10 7.83659e-05
9 *213:C *48:37 9.3699e-05
10 *240:D *213:C 0.000310172
11 *255:A *213:C 9.17495e-05
*RES
1 *212:Y *213:C 38.7607 
*END

*D_NET *33 0.00282215
*CONN
*I *217:B I *D sky130_fd_sc_hd__and3_1
*I *214:X O *D sky130_fd_sc_hd__a31o_1
*CAP
1 *217:B 0.000477759
2 *214:X 0.000477759
3 *217:B *210:A1 0.00018077
4 *217:B *216:A 5.54655e-05
5 *217:B *217:C 0.000661841
6 *217:B *234:A0 1.07719e-05
7 *217:B *256:A 0.000238769
8 *217:B *257:A 7.83659e-05
9 *217:B *270:A 0.000186512
10 *217:B *34:10 6.09682e-05
11 *217:B *34:20 0.000166093
12 *241:D *217:B 0.000227071
*RES
1 *214:X *217:B 42.2429 
*END

*D_NET *34 0.00982233
*CONN
*I *216:A I *D sky130_fd_sc_hd__inv_2
*I *220:A2 I *D sky130_fd_sc_hd__a21o_1
*I *219:A2 I *D sky130_fd_sc_hd__a21oi_1
*I *218:A2 I *D sky130_fd_sc_hd__o21ai_1
*I *224:D I *D sky130_fd_sc_hd__and4_1
*I *221:C I *D sky130_fd_sc_hd__and3_1
*I *215:X O *D sky130_fd_sc_hd__and4_2
*CAP
1 *216:A 0.000374429
2 *220:A2 2.23854e-05
3 *219:A2 0
4 *218:A2 0.000326442
5 *224:D 0.000646699
6 *221:C 0.000165637
7 *215:X 0
8 *34:68 0.000670595
9 *34:54 0.000565745
10 *34:20 0.000985674
11 *34:10 0.000592774
12 *34:4 0.000594658
13 *216:A *214:A3 0
14 *216:A *215:A 0
15 *216:A *217:C 0.000150038
16 *216:A *256:A 0.000373921
17 *216:A *270:A 9.35114e-06
18 *216:A *49:31 0.000242949
19 *221:C *234:A0 0.000139485
20 *221:C *51:68 2.54106e-05
21 *224:D *222:B 6.19181e-05
22 *224:D *224:A 2.59355e-05
23 *224:D *224:B 2.21179e-05
24 *224:D *224:C 5.62622e-05
25 *224:D *225:A1 5.07555e-05
26 *224:D *234:A0 0.000216354
27 *224:D *235:A1 0
28 *224:D *235:S 2.60158e-05
29 *224:D *236:A0 9.35114e-06
30 *224:D *257:A 0
31 *224:D *43:6 0.000523444
32 *224:D *53:12 0.000337894
33 *224:D *54:10 0.000293408
34 *224:D *71:18 0.000121755
35 *34:10 *217:C 5.65955e-05
36 *34:10 *256:A 2.55698e-05
37 *34:20 *214:A1 0.000229438
38 *34:20 *214:A2 0.000216342
39 *34:20 *222:B 0
40 *34:20 *257:A 6.49413e-05
41 *34:20 *48:75 0.000222238
42 *34:54 *220:A1 0.000120577
43 *34:54 *222:B 0.000401093
44 *34:54 *256:A 1.39782e-05
45 *34:54 *48:75 0.000355357
46 *34:68 *219:B1 0
47 *34:68 *220:B1 0
48 *34:68 *242:CLK 6.56118e-05
49 *34:68 *242:D 1.52978e-05
50 *34:68 *52:10 0
51 *217:B *216:A 5.54655e-05
52 *217:B *34:10 6.09682e-05
53 *217:B *34:20 0.000166093
54 *263:A *224:D 0
55 *267:A *218:A2 2.89114e-05
56 *267:A *34:68 0
57 *29:22 *218:A2 9.24491e-05
58 *29:22 *34:68 0
*RES
1 *215:X *34:4 9.3 
2 *34:4 *34:10 7.60714 
3 *34:10 *34:20 19.4464 
4 *34:20 *221:C 11.55 
5 *34:20 *224:D 43.8893 
6 *34:10 *34:54 11.1071 
7 *34:54 *34:68 14.7143 
8 *34:68 *218:A2 23.9607 
9 *34:68 *219:A2 9.3 
10 *34:54 *220:A2 9.72857 
11 *34:4 *216:A 27.2643 
*END

*D_NET *35 0.00285545
*CONN
*I *217:C I *D sky130_fd_sc_hd__and3_1
*I *216:Y O *D sky130_fd_sc_hd__inv_2
*CAP
1 *217:C 0.000715667
2 *216:Y 0.000715667
3 *217:C *256:A 0.000387439
4 *217:C *49:18 0.000168197
5 *216:A *217:C 0.000150038
6 *217:B *217:C 0.000661841
7 *34:10 *217:C 5.65955e-05
*RES
1 *216:Y *217:C 42.8679 
*END

*D_NET *36 0.000583635
*CONN
*I *219:B1 I *D sky130_fd_sc_hd__a21oi_1
*I *218:Y O *D sky130_fd_sc_hd__o21ai_1
*CAP
1 *219:B1 0.000151562
2 *218:Y 0.000151562
3 *219:B1 *218:A1 0.000137983
4 *219:B1 *219:A1 3.92757e-05
5 *219:B1 *242:D 0
6 *267:A *219:B1 0.000103253
7 *34:68 *219:B1 0
*RES
1 *218:Y *219:B1 30.2964 
*END

*D_NET *37 0.00235476
*CONN
*I *222:B I *D sky130_fd_sc_hd__nand2_1
*I *220:X O *D sky130_fd_sc_hd__a21o_1
*CAP
1 *222:B 0.000625528
2 *220:X 0.000625528
3 *222:B *214:B1 7.8327e-05
4 *222:B *215:B 0.000133705
5 *222:B *251:D 0
6 *222:B *44:8 0.000301016
7 *222:B *48:75 0.000127643
8 *224:D *222:B 6.19181e-05
9 *263:A *222:B 0
10 *34:20 *222:B 0
11 *34:54 *222:B 0.000401093
*RES
1 *220:X *222:B 40.725 
*END

*D_NET *38 0.00397817
*CONN
*I *225:A2 I *D sky130_fd_sc_hd__o21ai_1
*I *223:A I *D sky130_fd_sc_hd__nor2_1
*I *221:X O *D sky130_fd_sc_hd__and3_1
*CAP
1 *225:A2 0.000168583
2 *223:A 0.000584813
3 *221:X 0.000445523
4 *38:10 0.00119892
5 *223:A *229:A_N 2.89114e-05
6 *223:A *40:19 9.25014e-06
7 *223:A *43:6 6.13757e-06
8 *225:A2 *225:A1 2.91602e-05
9 *225:A2 *226:B 0.00011327
10 *225:A2 *40:19 0.00011621
11 *38:10 *224:A 0.000435505
12 *38:10 *225:A1 6.16163e-05
13 *38:10 *226:B 2.26973e-05
14 *38:10 *229:A_N 1.37581e-05
15 *38:10 *242:CLK 0.000179233
16 *38:10 *46:65 0.000186304
17 *38:10 *51:8 2.3426e-05
18 *38:10 *51:21 0.000125724
19 *38:10 *51:68 1.48543e-05
20 *222:A *38:10 0.000114838
21 *225:B1 *223:A 4.16955e-06
22 *243:D *223:A 1.38826e-05
23 *244:D *38:10 5.67278e-05
24 *245:D *38:10 0
25 *29:67 *223:A 2.46553e-05
26 *29:67 *38:10 0
*RES
1 *221:X *38:10 24.9518 
2 *38:10 *223:A 21.7732 
3 *38:10 *225:A2 16.9696 
*END

*D_NET *39 0.00365141
*CONN
*I *223:B I *D sky130_fd_sc_hd__nor2_1
*I *222:Y O *D sky130_fd_sc_hd__nand2_1
*CAP
1 *223:B 0.00105103
2 *222:Y 0.00105103
3 *223:B *218:A1 9.21719e-05
4 *223:B *219:A1 0.000144773
5 *223:B *224:B 0
6 *223:B *242:D 2.14658e-05
7 *223:B *244:CLK 2.45626e-05
8 *223:B *46:33 8.85472e-05
9 *223:B *51:25 9.60875e-05
10 *223:B *52:10 0
11 *223:B *55:18 1.91512e-05
12 *222:A *223:B 0.000305896
13 *243:D *223:B 0.000340073
14 *244:D *223:B 1.38323e-05
15 *29:14 *223:B 0.00040279
16 *29:22 *223:B 0
*RES
1 *222:Y *223:B 49.1714 
*END

*D_NET *40 0.00172878
*CONN
*I *228:A2 I *D sky130_fd_sc_hd__o21a_1
*I *227:A2 I *D sky130_fd_sc_hd__a21boi_1
*I *226:A I *D sky130_fd_sc_hd__nor2_1
*I *224:X O *D sky130_fd_sc_hd__and4_1
*CAP
1 *228:A2 0.000105752
2 *227:A2 2.62399e-05
3 *226:A 4.41591e-05
4 *224:X 0.000117661
5 *40:19 0.000190905
6 *40:6 0.000220734
7 *227:A2 *227:A1 2.28499e-05
8 *227:A2 *228:B1 9.60875e-05
9 *228:A2 *227:A1 0.000332911
10 *228:A2 *228:B1 0.000198477
11 *40:6 *43:6 3.80953e-06
12 *223:A *40:19 9.25014e-06
13 *225:A2 *40:19 0.00011621
14 *225:B1 *227:A2 5.33005e-05
15 *225:B1 *228:A2 5.33005e-05
16 *225:B1 *40:19 6.7848e-05
17 *244:D *40:6 2.55587e-05
18 *245:D *228:A2 2.93922e-05
19 *29:67 *40:19 1.43349e-05
*RES
1 *224:X *40:6 10.6571 
2 *40:6 *226:A 10.0321 
3 *40:6 *40:19 10.6429 
4 *40:19 *227:A2 10.2464 
5 *40:19 *228:A2 13.675 
*END

*D_NET *41 0.000441672
*CONN
*I *226:B I *D sky130_fd_sc_hd__nor2_1
*I *225:Y O *D sky130_fd_sc_hd__o21ai_1
*CAP
1 *226:B 9.40945e-05
2 *225:Y 9.40945e-05
3 *226:B *225:A1 6.42145e-05
4 *226:B *228:B1 5.33005e-05
5 *225:A2 *226:B 0.00011327
6 *38:10 *226:B 2.26973e-05
*RES
1 *225:Y *226:B 29.7786 
*END

*D_NET *42 0.000992132
*CONN
*I *228:B1 I *D sky130_fd_sc_hd__o21a_1
*I *227:Y O *D sky130_fd_sc_hd__a21boi_1
*CAP
1 *228:B1 0.000253458
2 *227:Y 0.000253458
3 *228:B1 *227:A1 1.74352e-05
4 *228:B1 *55:14 0
5 counter_out[6] *228:B1 7.49387e-06
6 *226:B *228:B1 5.33005e-05
7 *227:A2 *228:B1 9.60875e-05
8 *227:B1_N *228:B1 1.24368e-05
9 *228:A2 *228:B1 0.000198477
10 *245:D *228:B1 9.99853e-05
*RES
1 *227:Y *228:B1 24.1 
*END

*D_NET *43 0.0111922
*CONN
*I *237:S I *D sky130_fd_sc_hd__mux2_1
*I *234:S I *D sky130_fd_sc_hd__mux2_1
*I *233:S I *D sky130_fd_sc_hd__mux2_1
*I *232:S I *D sky130_fd_sc_hd__mux2_1
*I *230:S I *D sky130_fd_sc_hd__mux2_1
*I *231:S I *D sky130_fd_sc_hd__mux2_1
*I *236:S I *D sky130_fd_sc_hd__mux2_1
*I *235:S I *D sky130_fd_sc_hd__mux2_1
*I *229:Y O *D sky130_fd_sc_hd__nand2b_4
*CAP
1 *237:S 0.000201114
2 *234:S 0.000174526
3 *233:S 0
4 *232:S 0
5 *230:S 0.000230319
6 *231:S 8.65689e-05
7 *236:S 0
8 *235:S 0.000196464
9 *229:Y 0.000796932
10 *43:48 0.000434049
11 *43:44 0.000735561
12 *43:38 0.000995523
13 *43:32 0.000956737
14 *43:30 0.000733851
15 *43:21 0.000326806
16 *43:6 0.00119255
17 *230:S *230:A0 0.000454311
18 *231:S *230:A0 0.000315158
19 *231:S *264:A 9.90367e-05
20 *235:S *235:A1 0
21 *235:S *253:D 0
22 *235:S *46:10 0
23 *235:S *46:12 0
24 *235:S *54:10 0.000103993
25 *235:S *81:10 7.6644e-05
26 *237:S *237:A1 6.05161e-06
27 *237:S *276:A 5.52302e-05
28 *237:S *82:12 0
29 *43:6 *229:A_N 1.21258e-05
30 *43:6 *236:A0 1.86517e-05
31 *43:30 *236:A0 4.88637e-05
32 *43:32 *253:D 0
33 *43:32 *46:10 0
34 *43:32 *46:12 0
35 *43:32 *82:12 0
36 *43:38 *235:A1 0
37 *43:38 *250:CLK 0
38 *43:38 *250:D 7.80929e-05
39 *43:38 *283:A 0
40 *43:38 *46:12 0
41 *43:38 *80:12 0.000314451
42 *43:44 *233:A0 1.21258e-05
43 *43:44 *233:A1 0.0004161
44 *43:44 *246:CLK 0.000168939
45 *43:44 *249:CLK 7.4094e-05
46 *43:44 *249:D 7.15687e-05
47 *43:44 *264:A 0
48 *43:44 *45:10 5.26184e-05
49 *43:44 *45:89 2.19684e-05
50 *43:48 *264:A 0
51 counter_out[5] *43:32 0
52 counter_out[5] *43:38 0
53 *223:A *43:6 6.13757e-06
54 *224:D *235:S 2.60158e-05
55 *224:D *43:6 0.000523444
56 *244:D *43:6 0.000139913
57 *246:D *43:44 0
58 *246:D *43:48 0
59 *247:D *43:44 0.000159689
60 *247:D *43:48 0.000125724
61 *263:A *43:38 0
62 *271:A *43:44 0.00018372
63 *273:A *234:S 5.41494e-05
64 *273:A *43:38 0
65 *277:A *237:S 0
66 *277:A *43:21 0.000451463
67 *277:A *43:30 5.71472e-05
68 *40:6 *43:6 3.80953e-06
*RES
1 *229:Y *43:6 19.2821 
2 *43:6 *235:S 22.675 
3 *43:6 *43:21 4.96429 
4 *43:21 *236:S 9.3 
5 *43:21 *43:30 7.08929 
6 *43:30 *43:32 7.10714 
7 *43:32 *43:38 12.75 
8 *43:38 *43:44 18.9821 
9 *43:44 *43:48 6.75 
10 *43:48 *231:S 12.3 
11 *43:48 *230:S 15.6214 
12 *43:44 *232:S 13.8 
13 *43:38 *233:S 9.3 
14 *43:32 *234:S 16.8 
15 *43:30 *237:S 17.1929 
*END

*D_NET *44 0.0037151
*CONN
*I *257:A I *D sky130_fd_sc_hd__clkbuf_16
*I *256:A I *D sky130_fd_sc_hd__clkbuf_16
*I *255:X O *D sky130_fd_sc_hd__clkbuf_16
*CAP
1 *257:A 0.000489597
2 *256:A 0.00032376
3 *255:X 0.00023811
4 *44:8 0.00105147
5 *256:A *220:A1 0
6 *257:A *220:A1 0
7 *257:A *242:CLK 0
8 *257:A *51:21 0
9 *257:A *53:12 0
10 *216:A *256:A 0.000373921
11 *217:B *256:A 0.000238769
12 *217:B *257:A 7.83659e-05
13 *217:C *256:A 0.000387439
14 *222:B *44:8 0.000301016
15 *224:D *257:A 0
16 *245:D *257:A 0.000128161
17 *34:10 *256:A 2.55698e-05
18 *34:20 *257:A 6.49413e-05
19 *34:54 *256:A 1.39782e-05
*RES
1 *255:X *44:8 16.8 
2 *44:8 *256:A 22.8714 
3 *44:8 *257:A 22.425 
*END

*D_NET *45 0.0067852
*CONN
*I *249:CLK I *D sky130_fd_sc_hd__dfxtp_1
*I *248:CLK I *D sky130_fd_sc_hd__dfxtp_1
*I *246:CLK I *D sky130_fd_sc_hd__dfxtp_1
*I *247:CLK I *D sky130_fd_sc_hd__dfxtp_1
*I *258:A I *D sky130_fd_sc_hd__clkbuf_4
*I *241:CLK I *D sky130_fd_sc_hd__dfxtp_1
*I *239:CLK I *D sky130_fd_sc_hd__dfxtp_1
*I *238:CLK I *D sky130_fd_sc_hd__dfxtp_1
*I *240:CLK I *D sky130_fd_sc_hd__dfxtp_1
*I *256:X O *D sky130_fd_sc_hd__clkbuf_16
*CAP
1 *249:CLK 0.000150768
2 *248:CLK 0.000125296
3 *246:CLK 0.000153954
4 *247:CLK 0
5 *258:A 0
6 *241:CLK 0.000213238
7 *239:CLK 0.000145621
8 *238:CLK 2.90726e-05
9 *240:CLK 0
10 *256:X 0
11 *45:89 0.000291478
12 *45:67 0.000192765
13 *45:27 0.000849451
14 *45:23 0.000926238
15 *45:16 0.000351533
16 *45:12 0.000360664
17 *45:10 0.000155761
18 *45:6 8.49913e-05
19 *241:CLK *212:B 6.05161e-06
20 *241:CLK *47:106 1.24368e-05
21 *241:CLK *48:10 1.17968e-05
22 *241:CLK *48:75 2.94103e-05
23 *246:CLK *230:A1 5.76121e-05
24 *246:CLK *66:20 0.000142856
25 *246:CLK *76:8 1.58163e-05
26 *248:CLK *248:D 0.000315165
27 *249:CLK *270:A 7.3237e-05
28 *249:CLK *280:A 9.87496e-05
29 *45:10 *264:A 4.35131e-05
30 *45:10 *280:A 3.92854e-05
31 *45:12 *260:A 6.87574e-05
32 *45:12 *76:8 3.32631e-05
33 *45:16 *260:A 0.000276267
34 *45:16 *49:8 7.95804e-05
35 *45:67 *260:A 3.9846e-05
36 *45:67 *76:8 5.06983e-05
37 *45:89 *280:A 2.82057e-05
38 counter_out[1] *249:CLK 9.80173e-05
39 *213:C *241:CLK 0.000270236
40 *238:D *238:CLK 3.17067e-05
41 *238:D *239:CLK 6.5185e-05
42 *238:D *45:27 1.57226e-05
43 *240:D *45:16 0.000126934
44 *240:D *45:27 1.82657e-05
45 *241:D *241:CLK 0.000129248
46 *247:D *246:CLK 4.08637e-05
47 *247:D *45:67 5.33005e-05
48 *255:A *241:CLK 0.000164725
49 *43:44 *246:CLK 0.000168939
50 *43:44 *249:CLK 7.4094e-05
51 *43:44 *45:10 5.26184e-05
52 *43:44 *45:89 2.19684e-05
*RES
1 *256:X *45:6 13.8 
2 *45:6 *45:10 6.44643 
3 *45:10 *45:12 1.35714 
4 *45:12 *45:16 7.53571 
5 *45:16 *240:CLK 9.3 
6 *45:16 *45:23 0.732143 
7 *45:23 *45:27 12.0179 
8 *45:27 *238:CLK 14.5321 
9 *45:27 *239:CLK 16.3893 
10 *45:23 *241:CLK 24.0321 
11 *45:12 *258:A 9.3 
12 *45:10 *45:67 1.35714 
13 *45:67 *247:CLK 9.3 
14 *45:67 *246:CLK 22.4429 
15 *45:6 *45:89 0.732143 
16 *45:89 *248:CLK 16.8 
17 *45:89 *249:CLK 18.3714 
*END

*D_NET *46 0.00831831
*CONN
*I *252:CLK I *D sky130_fd_sc_hd__dfxtp_1
*I *253:CLK I *D sky130_fd_sc_hd__dfxtp_1
*I *251:CLK I *D sky130_fd_sc_hd__dfxtp_1
*I *254:CLK I *D sky130_fd_sc_hd__dfxtp_1
*I *243:CLK I *D sky130_fd_sc_hd__dfxtp_1
*I *245:CLK I *D sky130_fd_sc_hd__dfxtp_1
*I *242:CLK I *D sky130_fd_sc_hd__dfxtp_1
*I *244:CLK I *D sky130_fd_sc_hd__dfxtp_1
*I *250:CLK I *D sky130_fd_sc_hd__dfxtp_1
*I *257:X O *D sky130_fd_sc_hd__clkbuf_16
*CAP
1 *252:CLK 0.0004073
2 *253:CLK 0
3 *251:CLK 0
4 *254:CLK 0.000330932
5 *243:CLK 0.000148989
6 *245:CLK 0
7 *242:CLK 0.000440198
8 *244:CLK 2.12098e-05
9 *250:CLK 9.81103e-05
10 *257:X 0
11 *46:74 0.000865376
12 *46:65 0.000451387
13 *46:42 0.000506129
14 *46:33 0.000483289
15 *46:25 0.000647903
16 *46:12 0.000395987
17 *46:10 0.000240444