*SPEF "ieee 1481-1999"
*DESIGN "dig"
*DATE "21:47:13 Thursday April 10, 2025"
*VENDOR "The OpenROAD Project"
*PROGRAM "OpenROAD"
*VERSION "edf00dff99f6c40d67a30c0e22a8191c5d2ed9d6"
*DESIGN_FLOW "NAME_SCOPE LOCAL" "PIN_CAP NONE"
*DIVIDER /
*DELIMITER :
*BUS_DELIMITER []
*T_UNIT 1 NS
*C_UNIT 1 PF
*R_UNIT 1 OHM
*L_UNIT 1 HENRY

*NAME_MAP
*3 clk
*4 counter_out[0]
*5 counter_out[1]
*6 counter_out[2]
*7 counter_out[3]
*8 counter_out[4]
*9 counter_out[5]
*10 counter_out[6]
*11 counter_out[7]
*12 trigger
*13 _00_
*14 _01_
*15 _02_
*16 _03_
*17 _04_
*18 _05_
*19 _06_
*20 _07_
*21 _08_
*22 _09_
*23 _10_
*24 _11_
*25 _12_
*26 _13_
*27 _14_
*28 _15_
*29 _16_
*30 _17_
*31 _18_
*32 _19_
*33 _20_
*34 _21_
*35 _22_
*36 _23_
*37 _24_
*38 _25_
*39 _26_
*40 _27_
*41 _28_
*42 _29_
*43 _30_
*44 clknet_0_clk
*45 clknet_1_0__leaf_clk
*46 clknet_1_1__leaf_clk
*47 counter\[0\]
*48 counter\[1\]
*49 counter\[2\]
*50 counter\[3\]
*51 counter\[4\]
*52 counter\[5\]
*53 counter\[6\]
*54 counter\[7\]
*55 net1
*56 net10
*57 net11
*58 net12
*59 net13
*60 net14
*61 net15
*62 net16
*63 net17
*64 net18
*65 net19
*66 net2
*67 net20
*68 net21
*69 net22
*70 net23
*71 net24
*72 net25
*73 net26
*74 net27
*75 net28
*76 net3
*77 net4
*78 net5
*79 net6
*80 net7
*81 net8
*82 net9
*83 trigger_prev
*84 FILLER_0_11
*85 FILLER_0_29
*86 FILLER_0_3
*87 FILLER_0_53
*88 FILLER_0_57
*89 FILLER_0_69
*90 FILLER_10_29
*91 FILLER_10_3
*92 FILLER_11_11
*93 FILLER_11_3
*94 FILLER_11_39
*95 FILLER_11_57
*96 FILLER_12_14
*97 FILLER_12_29
*98 FILLER_12_57
*99 FILLER_12_6
*100 FILLER_12_73
*101 FILLER_1_11
*102 FILLER_1_3
*103 FILLER_1_73
*104 FILLER_2_11
*105 FILLER_2_29
*106 FILLER_2_3
*107 FILLER_2_52
*108 FILLER_2_69
*109 FILLER_3_11
*110 FILLER_3_3
*111 FILLER_3_30
*112 FILLER_3_73
*113 FILLER_4_11
*114 FILLER_4_3
*115 FILLER_4_49
*116 FILLER_4_70
*117 FILLER_5_11
*118 FILLER_5_28
*119 FILLER_5_3
*120 FILLER_5_47
*121 FILLER_5_74
*122 FILLER_6_11
*123 FILLER_6_19
*124 FILLER_6_29
*125 FILLER_6_3
*126 FILLER_6_52
*127 FILLER_6_70
*128 FILLER_7_11
*129 FILLER_7_3
*130 FILLER_7_39
*131 FILLER_7_73
*132 FILLER_8_29
*133 FILLER_8_3
*134 FILLER_8_49
*135 FILLER_8_7
*136 FILLER_9_11
*137 FILLER_9_3
*138 FILLER_9_73
*139 PHY_EDGE_ROW_0_Left_13
*140 PHY_EDGE_ROW_0_Right_0
*141 PHY_EDGE_ROW_10_Left_23
*142 PHY_EDGE_ROW_10_Right_10
*143 PHY_EDGE_ROW_11_Left_24
*144 PHY_EDGE_ROW_11_Right_11
*145 PHY_EDGE_ROW_12_Left_25
*146 PHY_EDGE_ROW_12_Right_12
*147 PHY_EDGE_ROW_1_Left_14
*148 PHY_EDGE_ROW_1_Right_1
*149 PHY_EDGE_ROW_2_Left_15
*150 PHY_EDGE_ROW_2_Right_2
*151 PHY_EDGE_ROW_3_Left_16
*152 PHY_EDGE_ROW_3_Right_3
*153 PHY_EDGE_ROW_4_Left_17
*154 PHY_EDGE_ROW_4_Right_4
*155 PHY_EDGE_ROW_5_Left_18
*156 PHY_EDGE_ROW_5_Right_5
*157 PHY_EDGE_ROW_6_Left_19
*158 PHY_EDGE_ROW_6_Right_6
*159 PHY_EDGE_ROW_7_Left_20
*160 PHY_EDGE_ROW_7_Right_7
*161 PHY_EDGE_ROW_8_Left_21
*162 PHY_EDGE_ROW_8_Right_8
*163 PHY_EDGE_ROW_9_Left_22
*164 PHY_EDGE_ROW_9_Right_9
*165 TAP_TAPCELL_ROW_0_26
*166 TAP_TAPCELL_ROW_0_27
*167 TAP_TAPCELL_ROW_10_37
*168 TAP_TAPCELL_ROW_11_38
*169 TAP_TAPCELL_ROW_12_39
*170 TAP_TAPCELL_ROW_12_40
*171 TAP_TAPCELL_ROW_1_28
*172 TAP_TAPCELL_ROW_2_29
*173 TAP_TAPCELL_ROW_3_30
*174 TAP_TAPCELL_ROW_4_31
*175 TAP_TAPCELL_ROW_5_32
*176 TAP_TAPCELL_ROW_6_33
*177 TAP_TAPCELL_ROW_7_34
*178 TAP_TAPCELL_ROW_8_35
*179 TAP_TAPCELL_ROW_9_36
*180 _31_
*181 _32_
*182 _33_
*183 _34_
*184 _35_
*185 _36_
*186 _37_
*187 _38_
*188 _39_
*189 _40_
*190 _41_
*191 _42_
*192 _43_
*193 _44_
*194 _45_
*195 _46_
*196 _47_
*197 _48_
*198 _49_
*199 _50_
*200 _51_
*201 _52_
*202 _53_
*203 _54_
*204 _55_
*205 _56_
*206 _57_
*207 _58_
*208 _59_
*209 _60_
*210 _61_
*211 _62_
*212 _63_
*213 _64_
*214 _65_
*215 _66_
*216 _67_
*217 _68_
*218 _69_
*219 _70_
*220 _71_
*221 _72_
*222 _73_
*223 _74_
*224 _75_
*225 _76_
*226 _77_
*227 _78_
*228 clkbuf_0_clk
*229 clkbuf_1_0__f_clk
*230 clkbuf_1_1__f_clk
*231 clkload0
*232 hold1
*233 hold10
*234 hold11
*235 hold12
*236 hold13
*237 hold14
*238 hold15
*239 hold16
*240 hold17
*241 hold18
*242 hold19
*243 hold2
*244 hold3
*245 hold4
*246 hold5
*247 hold6
*248 hold7
*249 hold8
*250 hold9
*251 input1
*252 output2
*253 output3
*254 output4
*255 output5
*256 output6
*257 output7
*258 output8
*259 output9

*PORTS
clk I
counter_out[0] O
counter_out[1] O
counter_out[2] O
counter_out[3] O
counter_out[4] O
counter_out[5] O
counter_out[6] O
counter_out[7] O
trigger I

*D_NET *3 0.0040388
*CONN
*P clk I
*I *228:A I *D sky130_fd_sc_hd__clkbuf_16
*CAP
1 clk 0.00166941
2 *228:A 0.00166941
3 *228:A *184:B1 0
4 *228:A *186:C 9.17495e-05
5 *228:A *187:A1 0.000146474
6 *228:A *193:A1 2.8266e-06
7 *228:A *214:CLK 0.000164725
8 *228:A *214:D 0.000150625
9 *228:A *233:A 4.43184e-05
10 *228:A *47:33 6.60156e-05
11 *228:A *47:106 3.32354e-05
12 *228:A *48:75 0
*RES
1 clk *228:A 32.6592 
*END

*D_NET *4 0.00460182
*CONN
*P counter_out[0] O
*I *252:X O *D sky130_fd_sc_hd__buf_2
*CAP
1 counter_out[0] 0.000425522
2 *252:X 0.00187539
3 *4:16 0.00230091
4 counter_out[0] counter_out[1] 0
*RES
1 *252:X *4:16 47.0589 
2 *4:16 counter_out[0] 4.8388 
*END

*D_NET *5 0.00364144
*CONN
*P counter_out[1] O
*I *253:X O *D sky130_fd_sc_hd__buf_2
*CAP
1 counter_out[1] 0.00100224
2 *253:X 0.00100224
3 counter_out[1] counter_out[2] 0.000359086
4 counter_out[1] counter_out[3] 0.00029513
5 counter_out[1] *222:CLK 9.80173e-05
6 counter_out[1] *222:D 9.14355e-05
7 counter_out[1] *243:A 0.000167907
8 counter_out[1] *254:A 0.000344917
9 counter_out[1] *255:A 8.17615e-05
10 counter_out[1] *77:10 0.000198698
11 counter_out[0] counter_out[1] 0
*RES
1 *253:X counter_out[1] 37.0527 
*END

*D_NET *6 0.0011452
*CONN
*P counter_out[2] O
*I *254:X O *D sky130_fd_sc_hd__buf_2
*CAP
1 counter_out[2] 0.000393055
2 *254:X 0.000393055
3 counter_out[2] counter_out[3] 0
4 counter_out[1] counter_out[2] 0.000359086
*RES
1 *254:X counter_out[2] 22.4449 
*END

*D_NET *7 0.00133176
*CONN
*P counter_out[3] O
*I *255:X O *D sky130_fd_sc_hd__buf_2
*CAP
1 counter_out[3] 0.000447899
2 *255:X 0.000447899
3 counter_out[3] counter_out[4] 6.39829e-05
4 counter_out[3] *255:A 0
5 counter_out[3] *256:A 7.68486e-05
6 counter_out[1] counter_out[3] 0.00029513
7 counter_out[2] counter_out[3] 0
*RES
1 *255:X counter_out[3] 23.6592 
*END

*D_NET *8 0.00144255
*CONN
*P counter_out[4] O
*I *256:X O *D sky130_fd_sc_hd__buf_2
*CAP
1 counter_out[4] 0.000546326
2 *256:X 0.000546326
3 counter_out[4] counter_out[5] 0.000167209
4 counter_out[4] *256:A 0.00011871
5 counter_out[3] counter_out[4] 6.39829e-05
*RES
1 *256:X counter_out[4] 25.3371 
*END

*D_NET *9 0.00153662
*CONN
*P counter_out[5] O
*I *257:X O *D sky130_fd_sc_hd__buf_2
*CAP
1 counter_out[5] 0.000641993
2 *257:X 0.000641993
3 counter_out[5] counter_out[6] 0
4 counter_out[5] *207:A0 6.8646e-06
5 counter_out[5] *207:A1 3.92854e-05
6 counter_out[5] *246:A 0
7 counter_out[5] *256:A 3.92757e-05
8 counter_out[5] *43:32 0
9 counter_out[5] *43:38 0
10 counter_out[5] *82:12 0
11 counter_out[4] counter_out[5] 0.000167209
*RES
1 *257:X counter_out[5] 26.0878 
*END

*D_NET *10 0.00525892
*CONN
*P counter_out[6] O
*I *258:X O *D sky130_fd_sc_hd__buf_2
*CAP
1 counter_out[6] 0.00179874
2 *258:X 0.00179874
3 counter_out[6] counter_out[7] 0
4 counter_out[6] *200:A1 0.000580364
5 counter_out[6] *200:B1_N 5.41494e-05
6 counter_out[6] *201:B1 7.49387e-06
7 counter_out[6] *249:A 0.000970384
8 counter_out[6] *55:14 1.40306e-05
9 counter_out[6] *71:18 3.50181e-05
10 counter_out[5] counter_out[6] 0
*RES
1 *258:X counter_out[6] 37.4156 
*END

*D_NET *11 0.0011167
*CONN
*P counter_out[7] O
*I *259:X O *D sky130_fd_sc_hd__buf_2
*CAP
1 counter_out[7] 0.000558349
2 *259:X 0.000558349
3 counter_out[6] counter_out[7] 0
*RES
1 *259:X counter_out[7] 23.8033 
*END

*D_NET *12 0.000700161
*CONN
*P trigger I
*I *251:A I *D sky130_fd_sc_hd__buf_1
*CAP
1 trigger 0.00035008
2 *251:A 0.00035008
*RES
1 trigger *251:A 21.6946 
*END

*D_NET *13 0.000748384
*CONN
*I *211:D I *D sky130_fd_sc_hd__dfxtp_1
*I *181:X O *D sky130_fd_sc_hd__and2b_1
*CAP
1 *211:D 0.000251157
2 *181:X 0.000251157
3 *211:D *211:CLK 3.17067e-05
4 *211:D *212:CLK 6.5185e-05
5 *211:D *29:28 0.000133456
6 *211:D *45:27 1.57226e-05
*RES
1 *181:X *211:D 33.408 
*END

*D_NET *14 0.000901617
*CONN
*I *212:D I *D sky130_fd_sc_hd__dfxtp_1
*I *183:X O *D sky130_fd_sc_hd__o21a_1
*CAP
1 *212:D 0.000331145
2 *183:X 0.000331145
3 *212:D *183:B1 8.79872e-05
4 *212:D *29:26 0
5 *212:D *29:28 0
6 *212:D *48:27 0.00015134
*RES
1 *183:X *212:D 33.8902 
*END

*D_NET *15 0.00126969
*CONN
*I *213:D I *D sky130_fd_sc_hd__dfxtp_1
*I *186:X O *D sky130_fd_sc_hd__and3_1
*CAP
1 *213:D 0.000263216
2 *186:X 0.000263216
3 *213:D *186:B 5.52238e-05
4 *213:D *186:C 0.000310172
5 *213:D *252:A 0
6 *213:D *45:16 0.000126934
7 *213:D *45:27 1.82657e-05
8 *213:D *47:10 0.000175519
9 *213:D *48:37 5.71472e-05
*RES
1 *186:X *213:D 34.2473 
*END

*D_NET *16 0.00173464
*CONN
*I *214:D I *D sky130_fd_sc_hd__dfxtp_1
*I *190:X O *D sky130_fd_sc_hd__and3_1
*CAP
1 *214:D 0.00035451
2 *190:X 0.00035451
3 *214:D *183:A1 0.0001827
4 *214:D *183:A2 5.52238e-05
5 *214:D *185:C 0.000175691
6 *214:D *190:B 0.000227071
7 *214:D *214:CLK 0.000129248
8 *214:D *243:A 9.96422e-06
9 *214:D *47:106 8.00806e-05
10 *214:D *48:75 1.50181e-05
11 *228:A *214:D 0.000150625
*RES
1 *190:X *214:D 36.2964 
*END

*D_NET *17 0.000533875
*CONN
*I *240:A I *D sky130_fd_sc_hd__dlygate4sd3_1
*I *192:Y O *D sky130_fd_sc_hd__a21oi_1
*CAP
1 *240:A 0.000134658
2 *192:Y 0.000134658
3 *240:A *191:A2 2.89114e-05
4 *240:A *192:A1 1.59782e-05
5 *240:A *192:B1 0.000103253
6 *240:A *29:22 0.000116417
7 *240:A *34:68 0
*RES
1 *192:Y *240:A 30.9929 
*END

*D_NET *18 0.000932229
*CONN
*I *216:D I *D sky130_fd_sc_hd__dfxtp_1
*I *196:Y O *D sky130_fd_sc_hd__nor2_1
*CAP
1 *216:D 0.000161995
2 *196:Y 0.000161995
3 *216:D *196:A 1.38826e-05
4 *216:D *196:B 0.000340073
5 *216:D *216:CLK 1.64343e-05
6 *216:D *227:CLK 0.000148911
7 *216:D *55:18 8.89385e-05
*RES
1 *196:Y *216:D 32.6759 
*END

*D_NET *19 0.00200923
*CONN
*I *217:D I *D sky130_fd_sc_hd__dfxtp_1
*I *199:Y O *D sky130_fd_sc_hd__nor2_1
*CAP
1 *217:D 0.000373785
2 *199:Y 0.000373785
3 *217:D *180:B 5.58941e-05
4 *217:D *196:B 1.38323e-05
5 *217:D *197:A 0.000427976
6 *217:D *202:A_N 0.000130579
7 *217:D *217:CLK 5.33005e-05
8 *217:D *29:14 0.000175571
9 *217:D *38:10 5.67278e-05
10 *217:D *40:6 2.55587e-05
11 *217:D *43:6 0.000139913
12 *217:D *46:33 7.1287e-05
13 *217:D *51:21 3.17148e-05
14 *217:D *51:25 5.33005e-05
15 *217:D *52:10 2.60064e-05
*RES
1 *199:Y *217:D 38.408 
*END

*D_NET *20 0.00156895
*CONN
*I *218:D I *D sky130_fd_sc_hd__dfxtp_1
*I *201:X O *D sky130_fd_sc_hd__o21a_1
*CAP
1 *218:D 0.000528232
2 *201:X 0.000528232
3 *218:D *197:A 0.000171375
4 *218:D *197:B 2.21179e-05
5 *218:D *198:A1 0
6 *218:D *201:A2 2.93922e-05
7 *218:D *201:B1 9.99853e-05
8 *218:D *208:A0 4.7724e-05
9 *218:D *230:A 0.000128161
10 *218:D *38:10 0
11 *218:D *53:12 0
12 *218:D *53:25 1.37292e-05
13 *218:D *71:18 0
*RES
1 *201:X *218:D 37.3723 
*END

*D_NET *21 0.000279503
*CONN
*I *219:D I *D sky130_fd_sc_hd__dfxtp_1
*I *203:X O *D sky130_fd_sc_hd__mux2_1
*CAP
1 *219:D 0.000129096
2 *203:X 0.000129096
3 *219:D *203:A1 4.87669e-06
4 *219:D *43:44 0
5 *219:D *43:48 0
6 *219:D *66:20 1.64343e-05
*RES
1 *203:X *219:D 29.7116 
*END

*D_NET *22 0.0010418
*CONN
*I *220:D I *D sky130_fd_sc_hd__dfxtp_1
*I *204:X O *D sky130_fd_sc_hd__mux2_1
*CAP
1 *220:D 0.000237949
2 *204:X 0.000237949
3 *220:D *219:CLK 4.08637e-05
4 *220:D *233:A 0.000166007
5 *220:D *237:A 0
6 *220:D *43:44 0.000159689
7 *220:D *43:48 0.000125724
8 *220:D *45:67 5.33005e-05
9 *220:D *76:8 2.03169e-05
*RES
1 *204:X *220:D 32.9973 
*END

*D_NET *23 0.000765334
*CONN
*I *234:A I *D sky130_fd_sc_hd__dlygate4sd3_1
*I *205:X O *D sky130_fd_sc_hd__mux2_1
*CAP
1 *234:A 7.43567e-05
2 *205:X 7.43567e-05
3 *234:A *203:A1 0.000313474
4 *234:A *66:20 0.000303147
*RES
1 *205:X *234:A 22.0286 
*END

*D_NET *24 0.000725332
*CONN
*I *244:A I *D sky130_fd_sc_hd__dlygate4sd3_1
*I *206:X O *D sky130_fd_sc_hd__mux2_1
*CAP
1 *244:A 0.000131402
2 *206:X 0.000131402
3 *244:A *206:A0 5.12829e-05
4 *244:A *206:A1 0.000227526
5 *244:A *43:44 0.00018372
*RES
1 *206:X *244:A 22.4393 
*END

*D_NET *25 0.00135626
*CONN
*I *246:A I *D sky130_fd_sc_hd__dlygate4sd3_1
*I *207:X O *D sky130_fd_sc_hd__mux2_1
*CAP
1 *246:A 0.000455685
2 *207:X 0.000455685
3 *246:A *207:A0 9.91086e-05
4 *246:A *207:S 5.41494e-05
5 *246:A *223:D 0.000123409
6 *246:A *256:A 0.000168226
7 *246:A *43:38 0
8 *246:A *80:12 0
9 counter_out[5] *246:A 0
*RES
1 *207:X *246:A 36.8143 
*END

*D_NET *26 0.00145519
*CONN
*I *236:A I *D sky130_fd_sc_hd__dlygate4sd3_1
*I *208:X O *D sky130_fd_sc_hd__mux2_1
*CAP
1 *236:A 0.000299177
2 *208:X 0.000299177
3 *236:A *187:B1 0
4 *236:A *195:B 0
5 *236:A *197:D 0
6 *236:A *208:A1 0.000564133
7 *236:A *224:D 0.000292708
8 *236:A *43:38 0
*RES
1 *208:X *236:A 36.2786 
*END

*D_NET *27 0.000114192
*CONN
*I *248:A I *D sky130_fd_sc_hd__dlygate4sd3_1
*I *209:X O *D sky130_fd_sc_hd__mux2_1
*CAP
1 *248:A 5.70959e-05
2 *209:X 5.70959e-05
*RES
1 *209:X *248:A 19.5643 
*END

*D_NET *28 0.00133925
*CONN
*I *250:A I *D sky130_fd_sc_hd__dlygate4sd3_1
*I *210:X O *D sky130_fd_sc_hd__mux2_1
*CAP
1 *250:A 0.000168644
2 *210:X 0.000168644
3 *250:A *209:A0 0.000493352
4 *250:A *209:A1 0
5 *250:A *210:S 0
6 *250:A *43:21 0.000451463
7 *250:A *43:30 5.71472e-05
*RES
1 *210:X *250:A 33.8857 
*END

*D_NET *29 0.00938248
*CONN
*I *195:A I *D sky130_fd_sc_hd__nand2_1
*I *198:B1 I *D sky130_fd_sc_hd__o21ai_1
*I *200:B1_N I *D sky130_fd_sc_hd__a21boi_1
*I *191:B1 I *D sky130_fd_sc_hd__o21ai_1
*I *190:A I *D sky130_fd_sc_hd__and3_1
*I *181:B I *D sky130_fd_sc_hd__and2b_1
*I *182:B1_N I *D sky130_fd_sc_hd__a21boi_1
*I *186:A I *D sky130_fd_sc_hd__and3_1
*I *180:Y O *D sky130_fd_sc_hd__nand2b_2
*CAP
1 *195:A 0.000637975
2 *198:B1 0.00013935
3 *200:B1_N 0.000145591
4 *191:B1 0
5 *190:A 0
6 *181:B 4.00453e-05
7 *182:B1_N 0
8 *186:A 0.000328046
9 *180:Y 0
10 *29:67 0.000424331
11 *29:28 0.00071897
12 *29:26 0.000594329
13 *29:22 0.00067318
14 *29:14 0.00096994
15 *29:6 0.000599509
16 *29:4 0.000637975
17 *186:A *252:A 5.71472e-05
18 *186:A *48:37 0
19 *195:A *196:B 0.000305896
20 *195:A *197:A 0.000137983
21 *195:A *215:CLK 9.25014e-06
22 *195:A *38:10 0.000114838
23 *195:A *46:33 0.000443362
24 *195:A *46:65 0.000197984
25 *195:A *83:8 5.33005e-05
26 *198:B1 *196:A 4.16955e-06
27 *198:B1 *200:A1 9.90431e-05
28 *198:B1 *200:A2 5.33005e-05
29 *198:B1 *201:A2 5.33005e-05
30 *198:B1 *258:A 0
31 *198:B1 *40:19 6.7848e-05
32 *200:B1_N *201:B1 1.24368e-05
33 *200:B1_N *258:A 0
34 *200:B1_N *55:14 0
35 *29:14 *180:B 3.34295e-05
36 *29:14 *191:A1 7.33724e-05
37 *29:14 *192:A1 2.14757e-05
38 *29:14 *196:B 0.00040279
39 *29:14 *197:B 0.000275101
40 *29:14 *52:10 0.000101545
41 *29:22 *191:A2 9.24491e-05
42 *29:22 *196:B 0
43 *29:22 *34:68 0
44 *29:26 *183:B1 0
45 *29:28 *48:27 0
46 *29:28 *48:37 0
47 *29:67 *180:B 3.17148e-05
48 *29:67 *196:A 2.46553e-05
49 *29:67 *197:B 0.00015005
50 *29:67 *202:A_N 0.000162862
51 *29:67 *38:10 0
52 *29:67 *40:19 1.43349e-05
53 *29:67 *55:14 0
54 *29:67 *55:18 0
55 counter_out[6] *200:B1_N 5.41494e-05
56 *211:D *29:28 0.000133456
57 *212:D *29:26 0
58 *212:D *29:28 0
59 *217:D *29:14 0.000175571
60 *240:A *29:22 0.000116417
*RES
1 *180:Y *29:4 9.3 
2 *29:4 *29:6 4.5 
3 *29:6 *29:14 15.8929 
4 *29:14 *29:22 18.6964 
5 *29:22 *29:26 7.05357 
6 *29:26 *29:28 8.01786 
7 *29:28 *186:A 19.2464 
8 *29:28 *182:B1_N 13.8 
9 *29:26 *181:B 14.3357 
10 *29:22 *190:A 9.3 
11 *29:14 *191:B1 9.3 
12 *29:6 *29:67 3.91964 
13 *29:67 *200:B1_N 16.5768 
14 *29:67 *198:B1 16.8804 
15 *29:4 *195:A 32.175 
*END

*D_NET *30 0.00174279
*CONN
*I *183:B1 I *D sky130_fd_sc_hd__o21a_1
*I *182:Y O *D sky130_fd_sc_hd__a21boi_1
*CAP
1 *183:B1 0.000441614
2 *182:Y 0.000441614
3 *183:B1 *182:A1 2.58706e-05
4 *183:B1 *182:A2 2.89016e-05
5 *183:B1 *183:A2 2.79092e-05
6 *183:B1 *47:10 6.58195e-05
7 *183:B1 *47:76 0.000129314
8 *183:B1 *48:27 0.000487714
9 *183:B1 *48:75 0
10 *183:B1 *66:20 6.05161e-06
11 *212:D *183:B1 8.79872e-05
12 *29:26 *183:B1 0
*RES
1 *182:Y *183:B1 38.6 
*END

*D_NET *31 0.000467599
*CONN
*I *186:B I *D sky130_fd_sc_hd__and3_1
*I *184:X O *D sky130_fd_sc_hd__a21o_1
*CAP
1 *186:B 0.000159593
2 *184:X 0.000159593
3 *186:B *48:37 9.31893e-05
4 *213:D *186:B 5.52238e-05
*RES
1 *184:X *186:B 20.7786 
*END

*D_NET *32 0.00190171
*CONN
*I *186:C I *D sky130_fd_sc_hd__and3_1
*I *185:Y O *D sky130_fd_sc_hd__nand3_1
*CAP
1 *186:C 0.000409333
2 *185:Y 0.000409333
3 *186:C *214:CLK 0.000270236
4 *186:C *252:A 0
5 *186:C *47:10 4.23086e-05
6 *186:C *47:33 7.93806e-05
7 *186:C *47:76 0.000117135
8 *186:C *48:10 7.83659e-05
9 *186:C *48:37 9.3699e-05
10 *213:D *186:C 0.000310172
11 *228:A *186:C 9.17495e-05
*RES
1 *185:Y *186:C 38.7607 
*END

*D_NET *33 0.00282215
*CONN
*I *190:B I *D sky130_fd_sc_hd__and3_1
*I *187:X O *D sky130_fd_sc_hd__a31o_1
*CAP
1 *190:B 0.000477759
2 *187:X 0.000477759
3 *190:B *183:A1 0.00018077
4 *190:B *189:A 5.54655e-05
5 *190:B *190:C 0.000661841
6 *190:B *207:A0 1.07719e-05
7 *190:B *229:A 0.000238769
8 *190:B *230:A 7.83659e-05
9 *190:B *243:A 0.000186512
10 *190:B *34:10 6.09682e-05
11 *190:B *34:20 0.000166093
12 *214:D *190:B 0.000227071
*RES
1 *187:X *190:B 42.2429 
*END

*D_NET *34 0.00982233
*CONN
*I *189:A I *D sky130_fd_sc_hd__inv_2
*I *193:A2 I *D sky130_fd_sc_hd__a21o_1
*I *192:A2 I *D sky130_fd_sc_hd__a21oi_1
*I *191:A2 I *D sky130_fd_sc_hd__o21ai_1
*I *197:D I *D sky130_fd_sc_hd__and4_1
*I *194:C I *D sky130_fd_sc_hd__and3_1
*I *188:X O *D sky130_fd_sc_hd__and4_2
*CAP
1 *189:A 0.000374429
2 *193:A2 2.23854e-05
3 *192:A2 0
4 *191:A2 0.000326442
5 *197:D 0.000646699
6 *194:C 0.000165637
7 *188:X 0
8 *34:68 0.000670595
9 *34:54 0.000565745
10 *34:20 0.000985674
11 *34:10 0.000592774
12 *34:4 0.000594658
13 *189:A *187:A3 0
14 *189:A *188:A 0
15 *189:A *190:C 0.000150038
16 *189:A *229:A 0.000373921
17 *189:A *243:A 9.35114e-06
18 *189:A *49:31 0.000242949
19 *194:C *207:A0 0.000139485
20 *194:C *51:68 2.54106e-05
21 *197:D *195:B 6.19181e-05
22 *197:D *197:A 2.59355e-05
23 *197:D *197:B 2.21179e-05
24 *197:D *197:C 5.62622e-05
25 *197:D *198:A1 5.07555e-05
26 *197:D *207:A0 0.000216354
27 *197:D *208:A1 0
28 *197:D *208:S 2.60158e-05
29 *197:D *209:A0 9.35114e-06
30 *197:D *230:A 0
31 *197:D *43:6 0.000523444
32 *197:D *53:12 0.000337894
33 *197:D *54:10 0.000293408
34 *197:D *71:18 0.000121755
35 *34:10 *190:C 5.65955e-05
36 *34:10 *229:A 2.55698e-05
37 *34:20 *187:A1 0.000229438
38 *34:20 *187:A2 0.000216342
39 *34:20 *195:B 0
40 *34:20 *230:A 6.49413e-05
41 *34:20 *48:75 0.000222238
42 *34:54 *193:A1 0.000120577
43 *34:54 *195:B 0.000401093
44 *34:54 *229:A 1.39782e-05
45 *34:54 *48:75 0.000355357
46 *34:68 *192:B1 0
47 *34:68 *193:B1 0
48 *34:68 *215:CLK 6.56118e-05
49 *34:68 *215:D 1.52978e-05
50 *34:68 *52:10 0
51 *190:B *189:A 5.54655e-05
52 *190:B *34:10 6.09682e-05
53 *190:B *34:20 0.000166093
54 *236:A *197:D 0
55 *240:A *191:A2 2.89114e-05
56 *240:A *34:68 0
57 *29:22 *191:A2 9.24491e-05
58 *29:22 *34:68 0
*RES
1 *188:X *34:4 9.3 
2 *34:4 *34:10 7.60714 
3 *34:10 *34:20 19.4464 
4 *34:20 *194:C 11.55 
5 *34:20 *197:D 43.8893 
6 *34:10 *34:54 11.1071 
7 *34:54 *34:68 14.7143 
8 *34:68 *191:A2 23.9607 
9 *34:68 *192:A2 9.3 
10 *34:54 *193:A2 9.72857 
11 *34:4 *189:A 27.2643 
*END

*D_NET *35 0.00285545
*CONN
*I *190:C I *D sky130_fd_sc_hd__and3_1
*I *189:Y O *D sky130_fd_sc_hd__inv_2
*CAP
1 *190:C 0.000715667
2 *189:Y 0.000715667
3 *190:C *229:A 0.000387439
4 *190:C *49:18 0.000168197
5 *189:A *190:C 0.000150038
6 *190:B *190:C 0.000661841
7 *34:10 *190:C 5.65955e-05
*RES
1 *189:Y *190:C 42.8679 
*END

*D_NET *36 0.000583635
*CONN
*I *192:B1 I *D sky130_fd_sc_hd__a21oi_1
*I *191:Y O *D sky130_fd_sc_hd__o21ai_1
*CAP
1 *192:B1 0.000151562
2 *191:Y 0.000151562
3 *192:B1 *191:A1 0.000137983
4 *192:B1 *192:A1 3.92757e-05
5 *192:B1 *215:D 0
6 *240:A *192:B1 0.000103253
7 *34:68 *192:B1 0
*RES
1 *191:Y *192:B1 30.2964 
*END

*D_NET *37 0.00235476
*CONN
*I *195:B I *D sky130_fd_sc_hd__nand2_1
*I *193:X O *D sky130_fd_sc_hd__a21o_1
*CAP
1 *195:B 0.000625528
2 *193:X 0.000625528
3 *195:B *187:B1 7.8327e-05
4 *195:B *188:B 0.000133705
5 *195:B *224:D 0
6 *195:B *44:8 0.000301016
7 *195:B *48:75 0.000127643
8 *197:D *195:B 6.19181e-05
9 *236:A *195:B 0
10 *34:20 *195:B 0
11 *34:54 *195:B 0.000401093
*RES
1 *193:X *195:B 40.725 
*END

*D_NET *38 0.00397817
*CONN
*I *198:A2 I *D sky130_fd_sc_hd__o21ai_1
*I *196:A I *D sky130_fd_sc_hd__nor2_1
*I *194:X O *D sky130_fd_sc_hd__and3_1
*CAP
1 *198:A2 0.000168583
2 *196:A 0.000584813
3 *194:X 0.000445523
4 *38:10 0.00119892
5 *196:A *202:A_N 2.89114e-05
6 *196:A *40:19 9.25014e-06
7 *196:A *43:6 6.13757e-06
8 *198:A2 *198:A1 2.91602e-05
9 *198:A2 *199:B 0.00011327
10 *198:A2 *40:19 0.00011621
11 *38:10 *197:A 0.000435505
12 *38:10 *198:A1 6.16163e-05
13 *38:10 *199:B 2.26973e-05
14 *38:10 *202:A_N 1.37581e-05
15 *38:10 *215:CLK 0.000179233
16 *38:10 *46:65 0.000186304
17 *38:10 *51:8 2.3426e-05
18 *38:10 *51:21 0.000125724
19 *38:10 *51:68 1.48543e-05
20 *195:A *38:10 0.000114838
21 *198:B1 *196:A 4.16955e-06
22 *216:D *196:A 1.38826e-05
23 *217:D *38:10 5.67278e-05
24 *218:D *38:10 0
25 *29:67 *196:A 2.46553e-05
26 *29:67 *38:10 0
*RES
1 *194:X *38:10 24.9518 
2 *38:10 *196:A 21.7732 
3 *38:10 *198:A2 16.9696 
*END

*D_NET *39 0.00365141
*CONN
*I *196:B I *D sky130_fd_sc_hd__nor2_1
*I *195:Y O *D sky130_fd_sc_hd__nand2_1
*CAP
1 *196:B 0.00105103
2 *195:Y 0.00105103
3 *196:B *191:A1 9.21719e-05
4 *196:B *192:A1 0.000144773
5 *196:B *197:B 0
6 *196:B *215:D 2.14658e-05
7 *196:B *217:CLK 2.45626e-05
8 *196:B *46:33 8.85472e-05
9 *196:B *51:25 9.60875e-05
10 *196:B *52:10 0
11 *196:B *55:18 1.91512e-05
12 *195:A *196:B 0.000305896
13 *216:D *196:B 0.000340073
14 *217:D *196:B 1.38323e-05
15 *29:14 *196:B 0.00040279
16 *29:22 *196:B 0
*RES
1 *195:Y *196:B 49.1714 
*END

*D_NET *40 0.00172878
*CONN
*I *201:A2 I *D sky130_fd_sc_hd__o21a_1
*I *200:A2 I *D sky130_fd_sc_hd__a21boi_1
*I *199:A I *D sky130_fd_sc_hd__nor2_1
*I *197:X O *D sky130_fd_sc_hd__and4_1
*CAP
1 *201:A2 0.000105752
2 *200:A2 2.62399e-05
3 *199:A 4.41591e-05
4 *197:X 0.000117661
5 *40:19 0.000190905
6 *40:6 0.000220734
7 *200:A2 *200:A1 2.28499e-05
8 *200:A2 *201:B1 9.60875e-05
9 *201:A2 *200:A1 0.000332911
10 *201:A2 *201:B1 0.000198477
11 *40:6 *43:6 3.80953e-06
12 *196:A *40:19 9.25014e-06
13 *198:A2 *40:19 0.00011621
14 *198:B1 *200:A2 5.33005e-05
15 *198:B1 *201:A2 5.33005e-05
16 *198:B1 *40:19 6.7848e-05
17 *217:D *40:6 2.55587e-05
18 *218:D *201:A2 2.93922e-05
19 *29:67 *40:19 1.43349e-05
*RES
1 *197:X *40:6 10.6571 
2 *40:6 *199:A 10.0321 
3 *40:6 *40:19 10.6429 
4 *40:19 *200:A2 10.2464 
5 *40:19 *201:A2 13.675 
*END

*D_NET *41 0.000441672
*CONN
*I *199:B I *D sky130_fd_sc_hd__nor2_1
*I *198:Y O *D sky130_fd_sc_hd__o21ai_1
*CAP
1 *199:B 9.40945e-05
2 *198:Y 9.40945e-05
3 *199:B *198:A1 6.42145e-05
4 *199:B *201:B1 5.33005e-05
5 *198:A2 *199:B 0.00011327
6 *38:10 *199:B 2.26973e-05
*RES
1 *198:Y *199:B 29.7786 
*END

*D_NET *42 0.000992132
*CONN
*I *201:B1 I *D sky130_fd_sc_hd__o21a_1
*I *200:Y O *D sky130_fd_sc_hd__a21boi_1
*CAP
1 *201:B1 0.000253458
2 *200:Y 0.000253458
3 *201:B1 *200:A1 1.74352e-05
4 *201:B1 *55:14 0
5 counter_out[6] *201:B1 7.49387e-06
6 *199:B *201:B1 5.33005e-05
7 *200:A2 *201:B1 9.60875e-05
8 *200:B1_N *201:B1 1.24368e-05
9 *201:A2 *201:B1 0.000198477
10 *218:D *201:B1 9.99853e-05
*RES
1 *200:Y *201:B1 24.1 
*END

*D_NET *43 0.0111922
*CONN
*I *210:S I *D sky130_fd_sc_hd__mux2_1
*I *207:S I *D sky130_fd_sc_hd__mux2_1
*I *206:S I *D sky130_fd_sc_hd__mux2_1
*I *205:S I *D sky130_fd_sc_hd__mux2_1
*I *203:S I *D sky130_fd_sc_hd__mux2_1
*I *204:S I *D sky130_fd_sc_hd__mux2_1
*I *209:S I *D sky130_fd_sc_hd__mux2_1
*I *208:S I *D sky130_fd_sc_hd__mux2_1
*I *202:Y O *D sky130_fd_sc_hd__nand2b_4
*CAP
1 *210:S 0.000201114
2 *207:S 0.000174526
3 *206:S 0
4 *205:S 0
5 *203:S 0.000230319
6 *204:S 8.65689e-05
7 *209:S 0
8 *208:S 0.000196464
9 *202:Y 0.000796932
10 *43:48 0.000434049
11 *43:44 0.000735561
12 *43:38 0.000995523
13 *43:32 0.000956737
14 *43:30 0.000733851
15 *43:21 0.000326806
16 *43:6 0.00119255
17 *203:S *203:A0 0.000454311
18 *204:S *203:A0 0.000315158
19 *204:S *237:A 9.90367e-05
20 *208:S *208:A1 0
21 *208:S *226:D 0
22 *208:S *46:10 0
23 *208:S *46:12 0
24 *208:S *54:10 0.000103993
25 *208:S *81:10 7.6644e-05
26 *210:S *210:A1 6.05161e-06
27 *210:S *249:A 5.52302e-05
28 *210:S *82:12 0
29 *43:6 *202:A_N 1.21258e-05
30 *43:6 *209:A0 1.86517e-05
31 *43:30 *209:A0 4.88637e-05
32 *43:32 *226:D 0
33 *43:32 *46:10 0
34 *43:32 *46:12 0
35 *43:32 *82:12 0
36 *43:38 *208:A1 0
37 *43:38 *223:CLK 0
38 *43:38 *223:D 7.80929e-05
39 *43:38 *256:A 0
40 *43:38 *46:12 0
41 *43:38 *80:12 0.000314451
42 *43:44 *206:A0 1.21258e-05
43 *43:44 *206:A1 0.0004161
44 *43:44 *219:CLK 0.000168939
45 *43:44 *222:CLK 7.4094e-05
46 *43:44 *222:D 7.15687e-05
47 *43:44 *237:A 0
48 *43:44 *45:10 5.26184e-05
49 *43:44 *45:89 2.19684e-05
50 *43:48 *237:A 0
51 counter_out[5] *43:32 0
52 counter_out[5] *43:38 0
53 *196:A *43:6 6.13757e-06
54 *197:D *208:S 2.60158e-05
55 *197:D *43:6 0.000523444
56 *217:D *43:6 0.000139913
57 *219:D *43:44 0
58 *219:D *43:48 0
59 *220:D *43:44 0.000159689
60 *220:D *43:48 0.000125724
61 *236:A *43:38 0
62 *244:A *43:44 0.00018372
63 *246:A *207:S 5.41494e-05
64 *246:A *43:38 0
65 *250:A *210:S 0
66 *250:A *43:21 0.000451463
67 *250:A *43:30 5.71472e-05
68 *40:6 *43:6 3.80953e-06
*RES
1 *202:Y *43:6 19.2821 
2 *43:6 *208:S 22.675 
3 *43:6 *43:21 4.96429 
4 *43:21 *209:S 9.3 
5 *43:21 *43:30 7.08929 
6 *43:30 *43:32 7.10714 
7 *43:32 *43:38 12.75 
8 *43:38 *43:44 18.9821 
9 *43:44 *43:48 6.75 
10 *43:48 *204:S 12.3 
11 *43:48 *203:S 15.6214 
12 *43:44 *205:S 13.8 
13 *43:38 *206:S 9.3 
14 *43:32 *207:S 16.8 
15 *43:30 *210:S 17.1929 
*END

*D_NET *44 0.0037151
*CONN
*I *230:A I *D sky130_fd_sc_hd__clkbuf_16
*I *229:A I *D sky130_fd_sc_hd__clkbuf_16
*I *228:X O *D sky130_fd_sc_hd__clkbuf_16
*CAP
1 *230:A 0.000489597
2 *229:A 0.00032376
3 *228:X 0.00023811
4 *44:8 0.00105147
5 *229:A *193:A1 0
6 *230:A *193:A1 0
7 *230:A *215:CLK 0
8 *230:A *51:21 0
9 *230:A *53:12 0
10 *189:A *229:A 0.000373921
11 *190:B *229:A 0.000238769
12 *190:B *230:A 7.83659e-05
13 *190:C *229:A 0.000387439
14 *195:B *44:8 0.000301016
15 *197:D *230:A 0
16 *218:D *230:A 0.000128161
17 *34:10 *229:A 2.55698e-05
18 *34:20 *230:A 6.49413e-05
19 *34:54 *229:A 1.39782e-05
*RES
1 *228:X *44:8 16.8 
2 *44:8 *229:A 22.8714 
3 *44:8 *230:A 22.425 
*END

*D_NET *45 0.0067852
*CONN
*I *222:CLK I *D sky130_fd_sc_hd__dfxtp_1
*I *221:CLK I *D sky130_fd_sc_hd__dfxtp_1
*I *219:CLK I *D sky130_fd_sc_hd__dfxtp_1
*I *220:CLK I *D sky130_fd_sc_hd__dfxtp_1
*I *231:A I *D sky130_fd_sc_hd__clkbuf_4
*I *214:CLK I *D sky130_fd_sc_hd__dfxtp_1
*I *212:CLK I *D sky130_fd_sc_hd__dfxtp_1
*I *211:CLK I *D sky130_fd_sc_hd__dfxtp_1
*I *213:CLK I *D sky130_fd_sc_hd__dfxtp_1
*I *229:X O *D sky130_fd_sc_hd__clkbuf_16
*CAP
1 *222:CLK 0.000150768
2 *221:CLK 0.000125296
3 *219:CLK 0.000153954
4 *220:CLK 0
5 *231:A 0
6 *214:CLK 0.000213238
7 *212:CLK 0.000145621
8 *211:CLK 2.90726e-05
9 *213:CLK 0
10 *229:X 0
11 *45:89 0.000291478
12 *45:67 0.000192765
13 *45:27 0.000849451
14 *45:23 0.000926238
15 *45:16 0.000351533
16 *45:12 0.000360664
17 *45:10 0.000155761
18 *45:6 8.49913e-05
19 *214:CLK *185:B 6.05161e-06
20 *214:CLK *47:106 1.24368e-05
21 *214:CLK *48:10 1.17968e-05
22 *214:CLK *48:75 2.94103e-05
23 *219:CLK *203:A1 5.76121e-05
24 *219:CLK *66:20 0.000142856
25 *219:CLK *76:8 1.58163e-05
26 *221:CLK *221:D 0.000315165
27 *222:CLK *243:A 7.3237e-05
28 *222:CLK *253:A 9.87496e-05
29 *45:10 *237:A 4.35131e-05
30 *45:10 *253:A 3.92854e-05
31 *45:12 *233:A 6.87574e-05
32 *45:12 *76:8 3.32631e-05
33 *45:16 *233:A 0.000276267
34 *45:16 *49:8 7.95804e-05
35 *45:67 *233:A 3.9846e-05
36 *45:67 *76:8 5.06983e-05
37 *45:89 *253:A 2.82057e-05
38 counter_out[1] *222:CLK 9.80173e-05
39 *186:C *214:CLK 0.000270236
40 *211:D *211:CLK 3.17067e-05
41 *211:D *212:CLK 6.5185e-05
42 *211:D *45:27 1.57226e-05
43 *213:D *45:16 0.000126934
44 *213:D *45:27 1.82657e-05
45 *214:D *214:CLK 0.000129248
46 *220:D *219:CLK 4.08637e-05
47 *220:D *45:67 5.33005e-05
48 *228:A *214:CLK 0.000164725
49 *43:44 *219:CLK 0.000168939
50 *43:44 *222:CLK 7.4094e-05
51 *43:44 *45:10 5.26184e-05
52 *43:44 *45:89 2.19684e-05
*RES
1 *229:X *45:6 13.8 
2 *45:6 *45:10 6.44643 
3 *45:10 *45:12 1.35714 
4 *45:12 *45:16 7.53571 
5 *45:16 *213:CLK 9.3 
6 *45:16 *45:23 0.732143 
7 *45:23 *45:27 12.0179 
8 *45:27 *211:CLK 14.5321 
9 *45:27 *212:CLK 16.3893 
10 *45:23 *214:CLK 24.0321 
11 *45:12 *231:A 9.3 
12 *45:10 *45:67 1.35714 
13 *45:67 *220:CLK 9.3 
14 *45:67 *219:CLK 22.4429 
15 *45:6 *45:89 0.732143 
16 *45:89 *221:CLK 16.8 
17 *45:89 *222:CLK 18.3714 
*END

*D_NET *46 0.00831831
*CONN
*I *225:CLK I *D sky130_fd_sc_hd__dfxtp_1
*I *226:CLK I *D sky130_fd_sc_hd__dfxtp_1
*I *224:CLK I *D sky130_fd_sc_hd__dfxtp_1
*I *227:CLK I *D sky130_fd_sc_hd__dfxtp_1
*I *216:CLK I *D sky130_fd_sc_hd__dfxtp_1
*I *218:CLK I *D sky130_fd_sc_hd__dfxtp_1
*I *215:CLK I *D sky130_fd_sc_hd__dfxtp_1
*I *217:CLK I *D sky130_fd_sc_hd__dfxtp_1
*I *223:CLK I *D sky130_fd_sc_hd__dfxtp_1
*I *230:X O *D sky130_fd_sc_hd__clkbuf_16
*CAP
1 *225:CLK 0.0004073
2 *226:CLK 0
3 *224:CLK 0
4 *227:CLK 0.000330932
5 *216:CLK 0.000148989
6 *218:CLK 0
7 *215:CLK 0.000440198
8 *217:CLK 2.12098e-05
9 *223:CLK 9.81103e-05
10 *230:X 0
11 *46:74 0.000865376
12 *46:65 0.000451387
13 *46:42 0.000506129
14 *46:33 0.000483289
15 *46:25 0.000647903
16 *46:12 0.000395987
17 *46:10 0.000240444
18 *46:4 0.000535691
19 *215:CLK *194:B 4.8035e-05
20 *215:CLK *215:D 1.64343e-05
21 *215:CLK *51:8 3.67257e-05
22 *215:CLK *51:21 1.18064e-05
23 *223:CLK *208:A1 0.000173083
24 *225:CLK *225:D 1.64343e-05
25 *225:CLK *81:10 2.27416e-05
26 *227:CLK *197:B 0
27 *227:CLK *227:D 0.00049174
28 *227:CLK *55:18 3.17148e-05
29 *46:10 *226:D 8.16036e-05
30 *46:10 *81:10 1.92905e-05
31 *46:12 *208:A1 0.000191877
32 *46:25 *224:D 5.95099e-05