*SPEF "ieee 1481-1999"
*DESIGN "dig"
*DATE "15:58:19 Sunday April 13, 2025"
*VENDOR "The OpenROAD Project"
*PROGRAM "OpenROAD"
*VERSION "edf00dff99f6c40d67a30c0e22a8191c5d2ed9d6"
*DESIGN_FLOW "NAME_SCOPE LOCAL" "PIN_CAP NONE"
*DIVIDER /
*DELIMITER :
*BUS_DELIMITER []
*T_UNIT 1 NS
*C_UNIT 1 PF
*R_UNIT 1 OHM
*L_UNIT 1 HENRY

*NAME_MAP
*3 clk
*4 counter_out[0]
*5 counter_out[1]
*6 counter_out[2]
*7 counter_out[3]
*8 counter_out[4]
*9 counter_out[5]
*10 counter_out[6]
*11 counter_out[7]
*12 trigger
*13 _00_
*14 _01_
*15 _02_
*16 _03_
*17 _04_
*18 _05_
*19 _06_
*20 _07_
*21 _08_
*22 _09_
*23 _10_
*24 _11_
*25 _12_
*26 _13_
*27 _14_
*28 _15_
*29 _16_
*30 _17_
*31 _18_
*32 _19_
*33 _20_
*34 _21_
*35 _22_
*36 _23_
*37 _24_
*38 _25_
*39 _26_
*40 _27_
*41 _28_
*42 _29_
*43 _30_
*44 clknet_0_clk
*45 clknet_1_0__leaf_clk
*46 clknet_1_1__leaf_clk
*47 counter\[0\]
*48 counter\[1\]
*49 counter\[2\]
*50 counter\[3\]
*51 counter\[4\]
*52 counter\[5\]
*53 counter\[6\]
*54 counter\[7\]
*55 net1
*56 net10
*57 net11
*58 net12
*59 net13
*60 net14
*61 net15
*62 net16
*63 net17
*64 net18
*65 net19
*66 net2
*67 net20
*68 net21
*69 net22
*70 net23
*71 net24
*72 net25
*73 net26
*74 net3
*75 net4
*76 net5
*77 net6
*78 net7
*79 net8
*80 net9
*81 trigger_prev
*82 FILLER_0_11
*83 FILLER_0_19
*84 FILLER_0_27
*85 FILLER_0_29
*86 FILLER_0_3
*87 FILLER_0_37
*88 FILLER_10_11
*89 FILLER_10_19
*90 FILLER_10_27
*91 FILLER_10_29
*92 FILLER_10_3
*93 FILLER_11_11
*94 FILLER_11_19
*95 FILLER_11_3
*96 FILLER_12_29
*97 FILLER_12_35
*98 FILLER_13_3
*99 FILLER_13_37
*100 FILLER_13_43
*101 FILLER_14_11
*102 FILLER_14_29
*103 FILLER_14_3
*104 FILLER_14_41
*105 FILLER_15_11
*106 FILLER_15_3
*107 FILLER_16_23
*108 FILLER_16_27
*109 FILLER_16_29
*110 FILLER_16_3
*111 FILLER_17_15
*112 FILLER_17_23
*113 FILLER_17_3
*114 FILLER_17_43
*115 FILLER_17_9
*116 FILLER_18_24
*117 FILLER_18_29
*118 FILLER_18_3
*119 FILLER_18_38
*120 FILLER_19_15
*121 FILLER_19_3
*122 FILLER_1_11
*123 FILLER_1_19
*124 FILLER_1_27
*125 FILLER_1_3
*126 FILLER_1_35
*127 FILLER_1_43
*128 FILLER_20_11
*129 FILLER_20_15
*130 FILLER_20_24
*131 FILLER_20_3
*132 FILLER_20_38
*133 FILLER_21_11
*134 FILLER_21_19
*135 FILLER_21_27
*136 FILLER_21_3
*137 FILLER_22_11
*138 FILLER_22_29
*139 FILLER_22_3
*140 FILLER_22_41
*141 FILLER_23_3
*142 FILLER_23_37
*143 FILLER_23_43
*144 FILLER_23_7
*145 FILLER_24_19
*146 FILLER_24_27
*147 FILLER_24_29
*148 FILLER_24_40
*149 FILLER_25_13
*150 FILLER_25_21
*151 FILLER_25_29
*152 FILLER_25_3
*153 FILLER_25_37
*154 FILLER_25_43
*155 FILLER_25_9
*156 FILLER_26_11
*157 FILLER_26_17
*158 FILLER_26_25
*159 FILLER_26_3
*160 FILLER_26_37
*161 FILLER_27_11
*162 FILLER_27_19
*163 FILLER_27_3
*164 FILLER_27_37
*165 FILLER_27_43
*166 FILLER_28_23
*167 FILLER_28_27
*168 FILLER_28_29
*169 FILLER_28_42
*170 FILLER_28_6
*171 FILLER_29_19
*172 FILLER_2_11
*173 FILLER_2_19
*174 FILLER_2_27
*175 FILLER_2_29
*176 FILLER_2_3
*177 FILLER_2_37
*178 FILLER_2_43
*179 FILLER_30_15
*180 FILLER_30_23
*181 FILLER_30_27
*182 FILLER_30_29
*183 FILLER_30_3
*184 FILLER_30_40
*185 FILLER_30_7
*186 FILLER_31_11
*187 FILLER_31_17
*188 FILLER_31_24
*189 FILLER_31_3
*190 FILLER_32_11
*191 FILLER_32_29
*192 FILLER_32_3
*193 FILLER_32_41
*194 FILLER_33_11
*195 FILLER_33_3
*196 FILLER_34_11
*197 FILLER_34_19
*198 FILLER_34_27
*199 FILLER_34_29
*200 FILLER_34_3
*201 FILLER_34_35
*202 FILLER_35_11
*203 FILLER_35_19
*204 FILLER_35_27
*205 FILLER_35_29
*206 FILLER_35_3
*207 FILLER_35_37
*208 FILLER_3_11
*209 FILLER_3_19
*210 FILLER_3_27
*211 FILLER_3_3
*212 FILLER_3_35
*213 FILLER_3_39
*214 FILLER_4_11
*215 FILLER_4_29
*216 FILLER_4_3
*217 FILLER_4_33
*218 FILLER_4_43
*219 FILLER_5_11
*220 FILLER_5_17
*221 FILLER_5_27
*222 FILLER_5_3
*223 FILLER_6_11
*224 FILLER_6_19
*225 FILLER_6_29
*226 FILLER_6_3
*227 FILLER_6_35
*228 FILLER_7_16
*229 FILLER_7_24
*230 FILLER_7_3
*231 FILLER_7_41
*232 FILLER_7_9
*233 FILLER_8_25
*234 FILLER_8_29
*235 FILLER_8_37
*236 FILLER_8_43
*237 FILLER_9_11
*238 FILLER_9_19
*239 FILLER_9_27
*240 FILLER_9_3
*241 FILLER_9_35
*242 FILLER_9_43
*243 PHY_EDGE_ROW_0_Left_36
*244 PHY_EDGE_ROW_0_Right_0
*245 PHY_EDGE_ROW_10_Left_46
*246 PHY_EDGE_ROW_10_Right_10
*247 PHY_EDGE_ROW_11_Left_47
*248 PHY_EDGE_ROW_11_Right_11
*249 PHY_EDGE_ROW_12_Left_48
*250 PHY_EDGE_ROW_12_Right_12
*251 PHY_EDGE_ROW_13_Left_49
*252 PHY_EDGE_ROW_13_Right_13
*253 PHY_EDGE_ROW_14_Left_50
*254 PHY_EDGE_ROW_14_Right_14
*255 PHY_EDGE_ROW_15_Left_51
*256 PHY_EDGE_ROW_15_Right_15
*257 PHY_EDGE_ROW_16_Left_52
*258 PHY_EDGE_ROW_16_Right_16
*259 PHY_EDGE_ROW_17_Left_53
*260 PHY_EDGE_ROW_17_Right_17
*261 PHY_EDGE_ROW_18_Left_54
*262 PHY_EDGE_ROW_18_Right_18
*263 PHY_EDGE_ROW_19_Left_55
*264 PHY_EDGE_ROW_19_Right_19
*265 PHY_EDGE_ROW_1_Left_37
*266 PHY_EDGE_ROW_1_Right_1
*267 PHY_EDGE_ROW_20_Left_56
*268 PHY_EDGE_ROW_20_Right_20
*269 PHY_EDGE_ROW_21_Left_57
*270 PHY_EDGE_ROW_21_Right_21
*271 PHY_EDGE_ROW_22_Left_58
*272 PHY_EDGE_ROW_22_Right_22
*273 PHY_EDGE_ROW_23_Left_59
*274 PHY_EDGE_ROW_23_Right_23
*275 PHY_EDGE_ROW_24_Left_60
*276 PHY_EDGE_ROW_24_Right_24
*277 PHY_EDGE_ROW_25_Left_61
*278 PHY_EDGE_ROW_25_Right_25
*279 PHY_EDGE_ROW_26_Left_62
*280 PHY_EDGE_ROW_26_Right_26
*281 PHY_EDGE_ROW_27_Left_63
*282 PHY_EDGE_ROW_27_Right_27
*283 PHY_EDGE_ROW_28_Left_64
*284 PHY_EDGE_ROW_28_Right_28
*285 PHY_EDGE_ROW_29_Left_65
*286 PHY_EDGE_ROW_29_Right_29
*287 PHY_EDGE_ROW_2_Left_38
*288 PHY_EDGE_ROW_2_Right_2
*289 PHY_EDGE_ROW_30_Left_66
*290 PHY_EDGE_ROW_30_Right_30
*291 PHY_EDGE_ROW_31_Left_67
*292 PHY_EDGE_ROW_31_Right_31
*293 PHY_EDGE_ROW_32_Left_68
*294 PHY_EDGE_ROW_32_Right_32
*295 PHY_EDGE_ROW_33_Left_69
*296 PHY_EDGE_ROW_33_Right_33
*297 PHY_EDGE_ROW_34_Left_70
*298 PHY_EDGE_ROW_34_Right_34
*299 PHY_EDGE_ROW_35_Left_71
*300 PHY_EDGE_ROW_35_Right_35
*301 PHY_EDGE_ROW_3_Left_39
*302 PHY_EDGE_ROW_3_Right_3
*303 PHY_EDGE_ROW_4_Left_40
*304 PHY_EDGE_ROW_4_Right_4
*305 PHY_EDGE_ROW_5_Left_41
*306 PHY_EDGE_ROW_5_Right_5
*307 PHY_EDGE_ROW_6_Left_42
*308 PHY_EDGE_ROW_6_Right_6
*309 PHY_EDGE_ROW_7_Left_43
*310 PHY_EDGE_ROW_7_Right_7
*311 PHY_EDGE_ROW_8_Left_44
*312 PHY_EDGE_ROW_8_Right_8
*313 PHY_EDGE_ROW_9_Left_45
*314 PHY_EDGE_ROW_9_Right_9
*315 TAP_TAPCELL_ROW_0_72
*316 TAP_TAPCELL_ROW_10_77
*317 TAP_TAPCELL_ROW_12_78
*318 TAP_TAPCELL_ROW_14_79
*319 TAP_TAPCELL_ROW_16_80
*320 TAP_TAPCELL_ROW_18_81
*321 TAP_TAPCELL_ROW_20_82
*322 TAP_TAPCELL_ROW_22_83
*323 TAP_TAPCELL_ROW_24_84
*324 TAP_TAPCELL_ROW_26_85
*325 TAP_TAPCELL_ROW_28_86
*326 TAP_TAPCELL_ROW_2_73
*327 TAP_TAPCELL_ROW_30_87
*328 TAP_TAPCELL_ROW_32_88
*329 TAP_TAPCELL_ROW_34_89
*330 TAP_TAPCELL_ROW_35_90
*331 TAP_TAPCELL_ROW_4_74
*332 TAP_TAPCELL_ROW_6_75
*333 TAP_TAPCELL_ROW_8_76
*334 _31_
*335 _32_
*336 _33_
*337 _34_
*338 _35_
*339 _36_
*340 _37_
*341 _38_
*342 _39_
*343 _40_
*344 _41_
*345 _42_
*346 _43_
*347 _44_
*348 _45_
*349 _46_
*350 _47_
*351 _48_
*352 _49_
*353 _50_
*354 _51_
*355 _52_
*356 _53_
*357 _54_
*358 _55_
*359 _56_
*360 _57_
*361 _58_
*362 _59_
*363 _60_
*364 _61_
*365 _62_
*366 _63_
*367 _64_
*368 _65_
*369 _66_
*370 _67_
*371 _68_
*372 _69_
*373 _70_
*374 _71_
*375 _72_
*376 _73_
*377 _74_
*378 _75_
*379 _76_
*380 _77_
*381 _78_
*382 clkbuf_0_clk
*383 clkbuf_1_0__f_clk
*384 clkbuf_1_1__f_clk
*385 clkload0
*386 hold1
*387 hold10
*388 hold11
*389 hold12
*390 hold13
*391 hold14
*392 hold15
*393 hold16
*394 hold17
*395 hold2
*396 hold3
*397 hold4
*398 hold5
*399 hold6
*400 hold7
*401 hold8
*402 hold9
*403 input1
*404 output2
*405 output3
*406 output4
*407 output5
*408 output6
*409 output7
*410 output8
*411 output9

*PORTS
clk I
counter_out[0] O
counter_out[1] O
counter_out[2] O
counter_out[3] O
counter_out[4] O
counter_out[5] O
counter_out[6] O
counter_out[7] O
trigger I

*D_NET *3 0.00591161
*CONN
*P clk I
*I *382:A I *D sky130_fd_sc_hd__clkbuf_16
*CAP
1 clk 0.00209155
2 *382:A 0
3 *3:11 0.00209155
4 *3:11 *337:A1 0
5 *3:11 *341:A3 0.000143054
6 *3:11 *344:B 0
7 *3:11 *366:D 0
8 *3:11 *368:CLK 0
9 *3:11 *369:D 9.24395e-05
10 *3:11 *383:A 0.00106191
11 *3:11 *384:A 7.46814e-05
12 *3:11 *34:29 0
13 *3:11 *34:42 0
14 *3:11 *45:12 0.000101545
15 *3:11 *45:34 0.000205942
16 *3:11 *45:94 0
17 *3:11 *47:38 0
18 *3:11 *47:49 0
19 *3:11 *47:60 0
20 *3:11 *47:73 0
21 *3:11 *48:8 4.8936e-05
*RES
1 clk *3:11 41.5085 
2 *3:11 *382:A 9.3 
*END

*D_NET *4 0.00142158
*CONN
*P counter_out[0] O
*I *404:X O *D sky130_fd_sc_hd__buf_2
*CAP
1 counter_out[0] 0.000672032
2 *404:X 0.000672032
3 counter_out[0] *404:A 7.75205e-05
*RES
1 *404:X counter_out[0] 27.9874 
*END

*D_NET *5 0.00119332
*CONN
*P counter_out[1] O
*I *405:X O *D sky130_fd_sc_hd__buf_2
*CAP
1 counter_out[1] 0.000516293
2 *405:X 0.000516293
3 counter_out[1] *404:A 0.000160734
*RES
1 *405:X counter_out[1] 21.6915 
*END

*D_NET *6 0.00110699
*CONN
*P counter_out[2] O
*I *406:X O *D sky130_fd_sc_hd__buf_2
*CAP
1 counter_out[2] 0.00051541
2 *406:X 0.00051541
3 counter_out[2] *406:A 7.617e-05
*RES
1 *406:X counter_out[2] 23.1163 
*END

*D_NET *7 0.00193459
*CONN
*P counter_out[3] O
*I *407:X O *D sky130_fd_sc_hd__buf_2
*CAP
1 counter_out[3] 0.000782465
2 *407:X 0.000782465
3 counter_out[3] *407:A 0.000193515
4 counter_out[3] *43:16 0
5 counter_out[3] *76:14 0.00017615
*RES
1 *407:X counter_out[3] 27.548 
*END

*D_NET *8 0.00101568
*CONN
*P counter_out[4] O
*I *408:X O *D sky130_fd_sc_hd__buf_2
*CAP
1 counter_out[4] 0.00050174
2 *408:X 0.00050174
3 counter_out[4] *43:14 1.21955e-05
*RES
1 *408:X counter_out[4] 18.8012 
*END

*D_NET *9 0.00094961
*CONN
*P counter_out[5] O
*I *409:X O *D sky130_fd_sc_hd__buf_2
*CAP
1 counter_out[5] 0.000474805
2 *409:X 0.000474805
*RES
1 *409:X counter_out[5] 19.8701 
*END

*D_NET *10 0.000980397
*CONN
*P counter_out[6] O
*I *410:X O *D sky130_fd_sc_hd__buf_2
*CAP
1 counter_out[6] 0.000483622
2 *410:X 0.000483622
3 counter_out[6] *364:S 1.31525e-05
*RES
1 *410:X counter_out[6] 19.0327 
*END

*D_NET *11 0.00123786
*CONN
*P counter_out[7] O
*I *411:X O *D sky130_fd_sc_hd__buf_2
*CAP
1 counter_out[7] 0.00061893
2 *411:X 0.00061893
*RES
1 *411:X counter_out[7] 22.9058 
*END

*D_NET *12 0.000806544
*CONN
*P trigger I
*I *403:A I *D sky130_fd_sc_hd__buf_1
*CAP
1 trigger 0.000403272
2 *403:A 0.000403272
*RES
1 trigger *403:A 21.7416 
*END

*D_NET *13 0.000655648
*CONN
*I *365:D I *D sky130_fd_sc_hd__dfxtp_1
*I *335:X O *D sky130_fd_sc_hd__and2b_1
*CAP
1 *365:D 0.000251297
2 *335:X 0.000251297
3 *365:D *337:A1 0
4 *365:D *337:B1 0
5 *365:D *48:43 0.000153054
*RES
1 *335:X *365:D 32.1759 
*END

*D_NET *14 0.000406312
*CONN
*I *366:D I *D sky130_fd_sc_hd__dfxtp_1
*I *337:X O *D sky130_fd_sc_hd__o21a_1
*CAP
1 *366:D 0.000203156
2 *337:X 0.000203156
3 *366:D *45:30 0
4 *3:11 *366:D 0
*RES
1 *337:X *366:D 30.7473 
*END

*D_NET *15 0.000779659
*CONN
*I *367:D I *D sky130_fd_sc_hd__dfxtp_1
*I *340:X O *D sky130_fd_sc_hd__and3_1
*CAP
1 *367:D 0.000378459
2 *340:X 0.000378459
3 *367:D *49:6 2.27416e-05
*RES
1 *340:X *367:D 24.533 
*END

*D_NET *16 0.000335806
*CONN
*I *368:D I *D sky130_fd_sc_hd__dfxtp_1
*I *344:X O *D sky130_fd_sc_hd__and3_1
*CAP
1 *368:D 8.04989e-05
2 *344:X 8.04989e-05
3 *368:D *343:A 1.76204e-05
4 *368:D *344:C 0
5 *368:D *368:CLK 4.1331e-06
6 *368:D *34:29 0.000153054
*RES
1 *344:X *368:D 29.7116 
*END

*D_NET *17 0.000919641
*CONN
*I *369:D I *D sky130_fd_sc_hd__dfxtp_1
*I *346:Y O *D sky130_fd_sc_hd__a21oi_1
*CAP
1 *369:D 0.000224025
2 *346:Y 0.000224025
3 *369:D *369:CLK 0.000316495
4 *369:D *34:29 6.26559e-05
5 *3:11 *369:D 9.24395e-05
*RES
1 *346:Y *369:D 32.8902 
*END

*D_NET *18 0.000818087
*CONN
*I *370:D I *D sky130_fd_sc_hd__dfxtp_1
*I *350:Y O *D sky130_fd_sc_hd__nor2_1
*CAP
1 *370:D 0.000139525
2 *350:Y 0.000139525
3 *370:D *350:B 0.000175519
4 *370:D *370:CLK 0.000187999
5 *370:D *29:20 0.000175519
*RES
1 *350:Y *370:D 31.658 
*END

*D_NET *19 0.000271112
*CONN
*I *371:D I *D sky130_fd_sc_hd__dfxtp_1
*I *353:Y O *D sky130_fd_sc_hd__nor2_1
*CAP
1 *371:D 9.36058e-05
2 *353:Y 9.36058e-05
3 *371:D *363:A0 0
4 *371:D *40:23 8.39e-05
5 *371:D *53:12 0
*RES
1 *353:Y *371:D 29.7116 
*END

*D_NET *20 0.000363701
*CONN
*I *372:D I *D sky130_fd_sc_hd__dfxtp_1
*I *355:X O *D sky130_fd_sc_hd__o21a_1
*CAP
1 *372:D 0.000173633
2 *355:X 0.000173633
3 *372:D *372:CLK 1.64343e-05
*RES
1 *355:X *372:D 30.2473 
*END

*D_NET *21 0.00051218
*CONN
*I *373:D I *D sky130_fd_sc_hd__dfxtp_1
*I *357:X O *D sky130_fd_sc_hd__mux2_1
*CAP
1 *373:D 0.000248837
2 *357:X 0.000248837
3 *373:D *357:A0 0
4 *373:D *358:S 4.87669e-06
5 *373:D *402:A 0
6 *373:D *405:A 9.63019e-06
*RES
1 *357:X *373:D 31.0688 
*END

*D_NET *22 0.000594231
*CONN
*I *374:D I *D sky130_fd_sc_hd__dfxtp_1
*I *358:X O *D sky130_fd_sc_hd__mux2_1
*CAP
1 *374:D 0.00023618
2 *358:X 0.00023618
3 *374:D *358:A0 5.30637e-06
4 *374:D *373:CLK 1.00073e-05
5 *374:D *374:CLK 0.000106558
*RES
1 *358:X *374:D 31.3723 
*END

*D_NET *23 0.00106314
*CONN
*I *395:A I *D sky130_fd_sc_hd__dlygate4sd3_1
*I *359:X O *D sky130_fd_sc_hd__mux2_1
*CAP
1 *395:A 0.000397093
2 *359:X 0.000397093
3 *395:A *359:A0 7.15962e-05
4 *395:A *29:56 6.74911e-05
5 *395:A *47:49 0.000129868
*RES
1 *359:X *395:A 33.475 
*END

*D_NET *24 0.00121141
*CONN
*I *397:A I *D sky130_fd_sc_hd__dlygate4sd3_1
*I *360:X O *D sky130_fd_sc_hd__mux2_1
*CAP
1 *397:A 0.000393121
2 *360:X 0.000393121
3 *397:A *341:A1 7.83587e-05
4 *397:A *360:A0 0.000152498
5 *397:A *34:10 0.000157055
6 *397:A *50:10 4.1331e-06
7 *397:A *50:16 3.31237e-05
*RES
1 *360:X *397:A 33.8857 
*END

*D_NET *25 0.00159527
*CONN
*I *388:A I *D sky130_fd_sc_hd__dlygate4sd3_1
*I *361:X O *D sky130_fd_sc_hd__mux2_1
*CAP
1 *388:A 0.000416565
2 *361:X 0.000416565
3 *388:A *361:A0 0.000187887
4 *388:A *361:A1 5.80201e-05
5 *388:A *361:S 9.83388e-05
6 *388:A *43:14 2.24646e-05
7 *388:A *43:16 0.000395427
*RES
1 *361:X *388:A 37.2429 
*END

*D_NET *26 0.00118199
*CONN
*I *390:A I *D sky130_fd_sc_hd__dlygate4sd3_1
*I *362:X O *D sky130_fd_sc_hd__mux2_1
*CAP
1 *390:A 0.000350873
2 *362:X 0.000350873
3 *390:A *351:C 5.83304e-05
4 *390:A *362:A0 5.52238e-05
5 *390:A *378:D 0.000270236
6 *390:A *43:12 0
7 *390:A *46:12 2.56601e-05
8 *390:A *46:49 7.07908e-05
*RES
1 *362:X *390:A 35.2071 
*END

*D_NET *27 0.00122005
*CONN
*I *399:A I *D sky130_fd_sc_hd__dlygate4sd3_1
*I *363:X O *D sky130_fd_sc_hd__mux2_1
*CAP
1 *399:A 0.000371976
2 *363:X 0.000371976
3 *399:A *363:A1 7.6644e-05
4 *399:A *364:S 0
5 *399:A *410:A 0.000128154
6 *399:A *43:8 0.000271302
*RES
1 *363:X *399:A 34.2607 
*END

*D_NET *28 0.000676597
*CONN
*I *401:A I *D sky130_fd_sc_hd__dlygate4sd3_1
*I *364:X O *D sky130_fd_sc_hd__mux2_1
*CAP
1 *401:A 0.000313208
2 *364:X 0.000313208
3 *401:A *364:A0 5.018e-05
4 *401:A *380:D 0
5 *401:A *46:90 0
*RES
1 *364:X *401:A 32.2607 
*END

*D_NET *29 0.0108853
*CONN
*I *354:B1_N I *D sky130_fd_sc_hd__a21boi_1
*I *352:B1 I *D sky130_fd_sc_hd__o21ai_1
*I *349:A I *D sky130_fd_sc_hd__nand2_1
*I *340:A I *D sky130_fd_sc_hd__and3_1
*I *335:B I *D sky130_fd_sc_hd__and2b_1
*I *336:B1_N I *D sky130_fd_sc_hd__a21boi_1
*I *345:B1 I *D sky130_fd_sc_hd__o21ai_1
*I *344:A I *D sky130_fd_sc_hd__and3_1
*I *334:Y O *D sky130_fd_sc_hd__nand2b_2
*CAP
1 *354:B1_N 0.000323998
2 *352:B1 7.95803e-05
3 *349:A 0
4 *340:A 0
5 *335:B 4.00275e-05
6 *336:B1_N 8.05912e-05
7 *345:B1 8.46826e-05
8 *344:A 2.23854e-05
9 *334:Y 0
10 *29:56 0.000331154
11 *29:54 0.000836933
12 *29:35 0.000910376
13 *29:26 0.000945977
14 *29:20 0.00112019
15 *29:10 0.00105389
16 *29:6 0.000902413
17 *336:B1_N *47:38 5.80217e-05
18 *336:B1_N *48:43 0.000136445
19 *345:B1 *346:B1 2.59355e-05
20 *345:B1 *369:CLK 5.33005e-05
21 *345:B1 *377:CLK 3.25078e-05
22 *345:B1 *383:A 7.83366e-05
23 *345:B1 *51:14 7.90803e-05
24 *352:B1 *352:A2 0.000126639
25 *354:B1_N *40:23 0.000186662
26 *29:10 *334:A_N 0
27 *29:10 *334:B 0
28 *29:10 *352:A2 5.66157e-05
29 *29:10 *356:A_N 0
30 *29:10 *40:23 0
31 *29:10 *46:60 0
32 *29:10 *46:71 0
33 *29:10 *55:10 0
34 *29:20 *350:B 8.89289e-05
35 *29:20 *352:A2 0.00022877
36 *29:20 *38:12 0
37 *29:26 *344:C 8.2778e-05
38 *29:26 *34:29 0.000342495
39 *29:26 *34:42 0.00053311
40 *29:26 *34:46 0
41 *29:26 *38:12 0
42 *29:54 *340:B 3.92757e-05
43 *29:54 *341:A1 1.46717e-05
44 *29:54 *341:A2 0.000150613
45 *29:54 *342:C 0.000116481
46 *29:54 *345:A2 0.000275094
47 *29:54 *377:CLK 4.58194e-05
48 *29:54 *377:D 0
49 *29:54 *34:10 0.000360102
50 *29:54 *47:49 7.79781e-06
51 *29:54 *47:60 3.15832e-05
52 *29:54 *47:73 6.41079e-05
53 *29:54 *48:43 5.80706e-06
54 *29:54 *48:52 3.22834e-05
55 *29:54 *49:10 0.000173804
56 *29:56 *47:38 7.79781e-06
57 *29:56 *47:49 0.000162608
58 *29:56 *48:43 0.000312615
59 *370:D *29:20 0.000175519
60 *395:A *29:56 6.74911e-05
*RES
1 *334:Y *29:6 13.8 
2 *29:6 *29:10 14.9464 
3 *29:10 *29:20 13.5179 
4 *29:20 *29:26 20.3571 
5 *29:26 *344:A 9.72857 
6 *29:26 *29:35 2.17857 
7 *29:35 *345:B1 20.7821 
8 *29:35 *29:54 19.75 
9 *29:54 *29:56 7.41071 
10 *29:56 *336:B1_N 16.2821 
11 *29:56 *335:B 14.3357 
12 *29:54 *340:A 13.8 
13 *29:20 *349:A 13.8 
14 *29:10 *352:B1 11.4786 
15 *29:6 *354:B1_N 19.675 
*END

*D_NET *30 0.00112658
*CONN
*I *337:B1 I *D sky130_fd_sc_hd__o21a_1
*I *336:Y O *D sky130_fd_sc_hd__a21boi_1
*CAP
1 *337:B1 0.000180424
2 *336:Y 0.000180424
3 *337:B1 *337:A1 0.000347366
4 *337:B1 *337:A2 2.44318e-05
5 *337:B1 *365:CLK 0.00016641
6 *337:B1 *45:30 0.000227526
7 *365:D *337:B1 0
*RES
1 *336:Y *337:B1 33.0643 
*END

*D_NET *31 0.000710015
*CONN
*I *340:B I *D sky130_fd_sc_hd__and3_1
*I *338:X O *D sky130_fd_sc_hd__a21o_1
*CAP
1 *340:B 0.000193875
2 *338:X 0.000193875
3 *340:B *338:A1 0.000184745
4 *340:B *338:A2 1.98839e-05
5 *340:B *47:60 7.83587e-05
6 *29:54 *340:B 3.92757e-05
*RES
1 *338:X *340:B 30.8143 
*END

*D_NET *32 0.000290345
*CONN
*I *340:C I *D sky130_fd_sc_hd__and3_1
*I *339:Y O *D sky130_fd_sc_hd__nand3_1
*CAP
1 *340:C 0.000104951
2 *339:Y 0.000104951
3 *340:C *339:A 8.04422e-05
*RES
1 *339:Y *340:C 20.0286 
*END

*D_NET *33 0.000632183
*CONN
*I *344:B I *D sky130_fd_sc_hd__and3_1
*I *341:X O *D sky130_fd_sc_hd__a31o_1
*CAP
1 *344:B 0.000198544
2 *341:X 0.000198544
3 *344:B *368:CLK 0
4 *344:B *376:CLK 5.71472e-05
5 *344:B *34:29 0.000177948
6 *3:11 *344:B 0
*RES
1 *341:X *344:B 31.6 
*END

*D_NET *34 0.00704846
*CONN
*I *345:A2 I *D sky130_fd_sc_hd__o21ai_1
*I *348:C I *D sky130_fd_sc_hd__and3_1
*I *351:D I *D sky130_fd_sc_hd__and4_1
*I *347:A2 I *D sky130_fd_sc_hd__a21o_1
*I *346:A2 I *D sky130_fd_sc_hd__a21oi_1
*I *343:A I *D sky130_fd_sc_hd__inv_2
*I *342:X O *D sky130_fd_sc_hd__and4_2
*CAP
1 *345:A2 0.000182166
2 *348:C 2.62672e-05
3 *351:D 0.000177598
4 *347:A2 0
5 *346:A2 0
6 *343:A 0.000171376
7 *342:X 0.000188723
8 *34:46 0.0002576
9 *34:42 0.00048069
10 *34:29 0.000649645
11 *34:16 0.000745133
12 *34:10 0.000669422
13 *345:A2 *377:CLK 0.000171375
14 *345:A2 *383:A 0
15 *345:A2 *46:18 9.25014e-06
16 *351:D *351:A 0
17 *351:D *370:CLK 0.000230482
18 *351:D *384:A 1.02504e-05
19 *351:D *38:12 0.000142082
20 *351:D *46:49 4.38128e-05
21 *351:D *52:8 6.07232e-05
22 *34:10 *341:A1 2.82057e-05
23 *34:10 *383:A 0
24 *34:10 *50:10 0
25 *34:10 *50:16 5.71472e-05
26 *34:16 *50:10 0.000184745
27 *34:29 *344:C 0
28 *34:29 *368:CLK 0
29 *34:42 *346:A1 8.00806e-05
30 *34:42 *384:A 0
31 *34:46 *384:A 0.000250208
32 *34:46 *38:12 0.00015234
33 *344:B *34:29 0.000177948
34 *368:D *343:A 1.76204e-05
35 *368:D *34:29 0.000153054
36 *369:D *34:29 6.26559e-05
37 *397:A *34:10 0.000157055
38 *3:11 *34:29 0
39 *3:11 *34:42 0
40 *29:26 *34:29 0.000342495
41 *29:26 *34:42 0.00053311
42 *29:26 *34:46 0
43 *29:54 *345:A2 0.000275094
44 *29:54 *34:10 0.000360102
*RES
1 *342:X *34:10 19.0143 
2 *34:10 *34:16 9.57143 
3 *34:16 *343:A 11.9071 
4 *34:16 *34:29 12.5179 
5 *34:29 *346:A2 13.8 
6 *34:29 *34:42 13.4821 
7 *34:42 *34:46 7.66071 
8 *34:46 *347:A2 13.8 
9 *34:46 *351:D 18.3357 
10 *34:42 *348:C 9.69286 
11 *34:10 *345:A2 18.7821 
*END

*D_NET *35 0.00069678
*CONN
*I *344:C I *D sky130_fd_sc_hd__and3_1
*I *343:Y O *D sky130_fd_sc_hd__inv_2
*CAP
1 *344:C 0.000307001
2 *343:Y 0.000307001
3 *368:D *344:C 0
4 *29:26 *344:C 8.2778e-05
5 *34:29 *344:C 0
*RES
1 *343:Y *344:C 32.7071 
*END

*D_NET *36 0.000931498
*CONN
*I *346:B1 I *D sky130_fd_sc_hd__a21oi_1
*I *345:Y O *D sky130_fd_sc_hd__o21ai_1
*CAP
1 *346:B1 0.000299355
2 *345:Y 0.000299355
3 *346:B1 *369:CLK 1.21258e-05
4 *346:B1 *383:A 3.92757e-05
5 *346:B1 *384:A 5.7616e-05
6 *346:B1 *44:8 2.40379e-05
7 *346:B1 *51:14 0.000173797
8 *345:B1 *346:B1 2.59355e-05
*RES
1 *345:Y *346:B1 32.975 
*END

*D_NET *37 0.000241453
*CONN
*I *349:B I *D sky130_fd_sc_hd__nand2_1
*I *347:X O *D sky130_fd_sc_hd__a21o_1
*CAP
1 *349:B 0.000120726
2 *347:X 0.000120726
3 *349:B *347:B1 0
*RES
1 *347:X *349:B 20.3857 
*END

*D_NET *38 0.00231784
*CONN
*I *350:A I *D sky130_fd_sc_hd__nor2_1
*I *352:A2 I *D sky130_fd_sc_hd__o21ai_1
*I *348:X O *D sky130_fd_sc_hd__and3_1
*CAP
1 *350:A 0
2 *352:A2 0.000367555
3 *348:X 0.000409566
4 *38:12 0.000777121
5 *352:A2 *353:B 5.71472e-05
6 *352:A2 *46:60 0
7 *38:12 *46:60 0
8 *351:D *38:12 0.000142082
9 *352:B1 *352:A2 0.000126639
10 *29:10 *352:A2 5.66157e-05
11 *29:20 *352:A2 0.00022877
12 *29:20 *38:12 0
13 *29:26 *38:12 0
14 *34:46 *38:12 0.00015234
*RES
1 *348:X *38:12 26.4607 
2 *38:12 *352:A2 24.8714 
3 *38:12 *350:A 9.3 
*END

*D_NET *39 0.000710941
*CONN
*I *350:B I *D sky130_fd_sc_hd__nor2_1
*I *349:Y O *D sky130_fd_sc_hd__nand2_1
*CAP
1 *350:B 0.000223247
2 *349:Y 0.000223247
3 *370:D *350:B 0.000175519
4 *29:20 *350:B 8.89289e-05
*RES
1 *349:Y *350:B 32.5107 
*END

*D_NET *40 0.00331536
*CONN
*I *354:A2 I *D sky130_fd_sc_hd__a21boi_1
*I *355:A2 I *D sky130_fd_sc_hd__o21a_1
*I *353:A I *D sky130_fd_sc_hd__nor2_1
*I *351:X O *D sky130_fd_sc_hd__and4_1
*CAP
1 *354:A2 0
2 *355:A2 0.000100936
3 *353:A 0
4 *351:X 0.000239741
5 *40:23 0.000723871
6 *40:10 0.000862676
7 *355:A2 *354:A1 0.000127439
8 *355:A2 *46:90 0
9 *40:10 *351:C 0
10 *40:10 *370:CLK 1.92789e-05
11 *40:10 *46:49 1.92905e-05
12 *40:10 *46:60 0.000320031
13 *40:23 *334:B 0
14 *40:23 *351:C 0
15 *40:23 *356:A_N 0
16 *40:23 *363:A0 0
17 *40:23 *46:60 0.000216771
18 *40:23 *46:71 0.000414762
19 *40:23 *46:90 0
20 *40:23 *53:12 0
21 *354:B1_N *40:23 0.000186662
22 *371:D *40:23 8.39e-05
23 *29:10 *40:23 0
*RES
1 *351:X *40:10 18.8179 
2 *40:10 *353:A 13.8 
3 *40:10 *40:23 18.8393 
4 *40:23 *355:A2 20.55 
5 *40:23 *354:A2 9.3 
*END

*D_NET *41 0.000424902
*CONN
*I *353:B I *D sky130_fd_sc_hd__nor2_1
*I *352:Y O *D sky130_fd_sc_hd__o21ai_1
*CAP
1 *353:B 0.000157454
2 *352:Y 0.000157454
3 *353:B *352:A1 5.28477e-05
4 *352:A2 *353:B 5.71472e-05
*RES
1 *352:Y *353:B 21.5107 
*END

*D_NET *42 0.000602549
*CONN
*I *355:B1 I *D sky130_fd_sc_hd__o21a_1
*I *354:Y O *D sky130_fd_sc_hd__a21boi_1
*CAP
1 *355:B1 0.000249127
2 *354:Y 0.000249127
3 *355:B1 *354:A1 7.83587e-05
4 *355:B1 *46:90 0
5 *355:B1 *71:6 2.59355e-05
*RES
1 *354:Y *355:B1 31.1357 
*END

*D_NET *43 0.0132107
*CONN
*I *364:S I *D sky130_fd_sc_hd__mux2_1
*I *363:S I *D sky130_fd_sc_hd__mux2_1
*I *362:S I *D sky130_fd_sc_hd__mux2_1
*I *361:S I *D sky130_fd_sc_hd__mux2_1
*I *360:S I *D sky130_fd_sc_hd__mux2_1
*I *359:S I *D sky130_fd_sc_hd__mux2_1
*I *358:S I *D sky130_fd_sc_hd__mux2_1
*I *357:S I *D sky130_fd_sc_hd__mux2_1
*I *356:Y O *D sky130_fd_sc_hd__nand2b_4
*CAP
1 *364:S 0.000872638
2 *363:S 0
3 *362:S 0
4 *361:S 7.23551e-05
5 *360:S 0
6 *359:S 5.67309e-05
7 *358:S 0.000605926
8 *357:S 6.82289e-05
9 *356:Y 0.000509292
10 *43:78 0.000908705
11 *43:24 0.00130611
12 *43:18 0.00113901
13 *43:16 0.000980413
14 *43:14 0.000841441
15 *43:12 0.000886596
16 *43:8 0.00119296
17 *357:S *357:A1 0.000128146
18 *358:S *373:CLK 3.88139e-05
19 *359:S *359:A1 5.49489e-05
20 *361:S *361:A1 3.69047e-06
21 *364:S *363:A1 0
22 *364:S *364:A1 0
23 *43:8 *356:A_N 9.46929e-05
24 *43:8 *363:A0 5.83771e-05
25 *43:12 *351:C 0
26 *43:12 *363:A1 1.02504e-05
27 *43:12 *409:A 0.000762554
28 *43:14 *409:A 7.39741e-05
29 *43:14 *78:10 7.83587e-05
30 *43:16 *360:A1 0.000312195
31 *43:16 *377:D 0
32 *43:16 *408:A 0.000194299
33 *43:16 *76:14 0
34 *43:16 *77:10 0.000324167
35 *43:18 *359:A1 0.000311488
36 *43:18 *360:A1 5.83304e-05
37 *43:18 *386:A 0
38 *43:18 *406:A 0
39 *43:24 *357:A0 0.000103032
40 *43:24 *357:A1 0.00019187
41 *43:24 *359:A1 3.17148e-05
42 *43:24 *406:A 0
43 *43:24 *47:23 0.000121606
44 counter_out[3] *43:16 0
45 counter_out[4] *43:14 1.21955e-05
46 counter_out[6] *364:S 1.31525e-05
47 *373:D *358:S 4.87669e-06
48 *388:A *361:S 9.83388e-05
49 *388:A *43:14 2.24646e-05
50 *388:A *43:16 0.000395427
51 *390:A *43:12 0
52 *399:A *364:S 0
53 *399:A *43:8 0.000271302
*RES
1 *356:Y *43:8 18.8893 
2 *43:8 *43:12 19.1964 
3 *43:12 *43:14 4.98214 
4 *43:14 *43:16 14.6964 
5 *43:16 *43:18 9.83929 
6 *43:18 *43:24 13.8393 
7 *43:24 *357:S 15.4429 
8 *43:24 *358:S 20.8179 
9 *43:18 *359:S 14.7464 
10 *43:16 *360:S 13.8 
11 *43:14 *361:S 15.1571 
12 *43:12 *362:S 13.8 
13 *43:8 *43:78 0.535714 
14 *43:78 *363:S 9.3 
15 *43:78 *364:S 32.9071 
*END

*D_NET *44 0.00499622
*CONN
*I *384:A I *D sky130_fd_sc_hd__clkbuf_16
*I *383:A I *D sky130_fd_sc_hd__clkbuf_16
*I *382:X O *D sky130_fd_sc_hd__clkbuf_16
*CAP
1 *384:A 0.000369869
2 *383:A 0.000403606
3 *382:X 0.000482739
4 *44:8 0.00125621
5 *383:A *341:A1 5.90443e-06
6 *383:A *377:CLK 0
7 *383:A *47:73 4.48113e-05
8 *383:A *50:10 0.000139653
9 *383:A *50:16 0.00020212
10 *383:A *51:14 1.5942e-05
11 *384:A *346:A1 0
12 *384:A *51:14 8.68479e-05
13 *384:A *51:34 0.000182086
14 *384:A *51:45 3.45894e-05
15 *384:A *52:8 2.41865e-05
16 *384:A *52:12 0.00015134
17 *345:A2 *383:A 0
18 *345:B1 *383:A 7.83366e-05
19 *346:B1 *383:A 3.92757e-05
20 *346:B1 *384:A 5.7616e-05
21 *346:B1 *44:8 2.40379e-05
22 *351:D *384:A 1.02504e-05
23 *3:11 *383:A 0.00106191
24 *3:11 *384:A 7.46814e-05
25 *34:10 *383:A 0
26 *34:42 *384:A 0
27 *34:46 *384:A 0.000250208
*RES
1 *382:X *44:8 19.2643 
2 *44:8 *383:A 27.2821 
3 *44:8 *384:A 24.55 
*END

*D_NET *45 0.0121249
*CONN
*I *385:A I *D sky130_fd_sc_hd__clkbuf_4
*I *368:CLK I *D sky130_fd_sc_hd__dfxtp_1
*I *376:CLK I *D sky130_fd_sc_hd__dfxtp_1
*I *367:CLK I *D sky130_fd_sc_hd__dfxtp_1
*I *375:CLK I *D sky130_fd_sc_hd__dfxtp_1
*I *366:CLK I *D sky130_fd_sc_hd__dfxtp_1
*I *365:CLK I *D sky130_fd_sc_hd__dfxtp_1
*I *373:CLK I *D sky130_fd_sc_hd__dfxtp_1
*I *374:CLK I *D sky130_fd_sc_hd__dfxtp_1
*I *383:X O *D sky130_fd_sc_hd__clkbuf_16
*CAP
1 *385:A 0
2 *368:CLK 0.000132374
3 *376:CLK 0.000648885
4 *367:CLK 0
5 *375:CLK 0.000656042
6 *366:CLK 0
7 *365:CLK 0.000230759
8 *373:CLK 0.000239772
9 *374:CLK 0.000336503
10 *383:X 0.000578546
11 *45:94 0.000970518
12 *45:34 0.000732434
13 *45:30 0.000864555
14 *45:24 0.00088339
15 *45:22 0.00118929
16 *45:20 0.00050746
17 *45:14 0.000802048
18 *45:12 0.000811364
19 *373:CLK *358:A0 0.000186669
20 *373:CLK *358:A1 0.000144773
21 *374:CLK *358:A0 3.34295e-05
22 *374:CLK *402:A 0
23 *375:CLK *375:D 5.52302e-05
24 *376:CLK *341:A2 0.000402443
25 *376:CLK *341:A3 2.89114e-05
26 *376:CLK *376:D 5.71472e-05
27 *45:12 *338:A2 1.21258e-05
28 *45:12 *341:A3 0.00010326
29 *45:12 *49:14 0.000210732
30 *45:34 *358:A0 0.000320745
31 *45:34 *48:8 6.73939e-05
32 *45:94 *341:A3 0
33 *337:B1 *365:CLK 0.00016641
34 *337:B1 *45:30 0.000227526
35 *344:B *368:CLK 0
36 *344:B *376:CLK 5.71472e-05
37 *358:S *373:CLK 3.88139e-05
38 *366:D *45:30 0
39 *368:D *368:CLK 4.1331e-06
40 *374:D *373:CLK 1.00073e-05
41 *374:D *374:CLK 0.000106558
42 *3:11 *368:CLK 0
43 *3:11 *45:12 0.000101545
44 *3:11 *45:34 0.000205942
45 *3:11 *45:94 0
46 *34:29 *368:CLK 0
*RES
1 *383:X *45:12 26.3357 
2 *45:12 *45:14 3.41071 
3 *45:14 *45:20 10.9464 
4 *45:20 *45:22 2.25 
5 *45:22 *45:24 7.41071 
6 *45:24 *45:30 12.625 
7 *45:30 *45:34 9.48214 
8 *45:34 *374:CLK 19.8714 
9 *45:34 *373:CLK 18.8714 
10 *45:30 *365:CLK 13.1393 
11 *45:24 *366:CLK 13.8 
12 *45:22 *375:CLK 24.1929 
13 *45:20 *367:CLK 13.8 
14 *45:14 *45:94 7.96429 
15 *45:94 *376:CLK 23.9607 
16 *45:94 *368:CLK 15.7464 
17 *45:12 *385:A 9.3 
*END

*D_NET *46 0.0120867
*CONN
*I *379:CLK I *D sky130_fd_sc_hd__dfxtp_1
*I *372:CLK I *D sky130_fd_sc_hd__dfxtp_1
*I *380:CLK I *D sky130_fd_sc_hd__dfxtp_1
*I *381:CLK I *D sky130_fd_sc_hd__dfxtp_1
*I *371:CLK I *D sky130_fd_sc_hd__dfxtp_1
*I *370:CLK I *D sky130_fd_sc_hd__dfxtp_1
*I *378:CLK I *D sky130_fd_sc_hd__dfxtp_1
*I *369:CLK I *D sky130_fd_sc_hd__dfxtp_1
*I *377:CLK I *D sky130_fd_sc_hd__dfxtp_1
*I *384:X O *D sky130_fd_sc_hd__clkbuf_16
*CAP
1 *379:CLK 0
2 *372:CLK 0.000487544
3 *380:CLK 0
4 *381:CLK 0.000533641
5 *371:CLK 0
6 *370:CLK 0.000376069
7 *378:CLK 0
8 *369:CLK 0.000375338
9 *377:CLK 0.000229779
10 *384:X 0.000125556
11 *46:90 0.000986459
12 *46:84 0.00066749
13 *46:71 0.000863922
14 *46:60 0.000491033
15 *46:49 0.000941573
16 *46:18 0.00109325
17 *46:12 0.000735889
18 *46:8 0.00060949
19 *369:CLK *345:A1 2.59355e-05
20 *369:CLK *51:6 2.59355e-05
21 *377:CLK *51:14 5.66157e-05
22 *381:CLK *381:D 1.64343e-05
23 *381:CLK *398:A 6.05161e-06
24 *46:12 *351:B 0
25 *46:12 *378:D 0
26 *46:12 *51:34 0
27 *46:12 *51:45 0
28 *46:18 *51:14 0.000342341
29 *46:18 *51:34 9.57064e-05
30 *46:49 *351:A 5.01213e-05
31 *46:49 *351:B 0
32 *46:49 *351:C 0.000196162
33 *46:60 *351:C 0
34 *46:71 *356:A_N 9.05381e-05
35 *46:84 *398:A 0.00020064
36 *46:90 *354:A1 0
37 *46:90 *379:D 0
38 *46:90 *380:D 0.000128822
39 *46:90 *54:10 0.000128161
40 *345:A2 *377:CLK 0.000171375
41 *345:A2 *46:18 9.25014e-06
42 *345:B1 *369:CLK 5.33005e-05
43 *345:B1 *377:CLK 3.25078e-05
44 *346:B1 *369:CLK 1.21258e-05
45 *351:D *370:CLK 0.000230482
46 *351:D *46:49 4.38128e-05
47 *352:A2 *46:60 0
48 *355:A2 *46:90 0
49 *355:B1 *46:90 0
50 *369:D *369:CLK 0.000316495
51 *370:D *370:CLK 0.000187999
52 *372:D *372:CLK 1.64343e-05
53 *383:A *377:CLK 0
54 *390:A *46:12 2.56601e-05
55 *390:A *46:49 7.07908e-05
56 *401:A *46:90 0
57 *29:10 *46:60 0
58 *29:10 *46:71 0
59 *29:54 *377:CLK 4.58194e-05
60 *38:12 *46:60 0
61 *40:10 *370:CLK 1.92789e-05
62 *40:10 *46:49 1.92905e-05
63 *40:10 *46:60 0.000320031
64 *40:23 *46:60 0.000216771
65 *40:23 *46:71 0.000414762
66 *40:23 *46:90 0
*RES
1 *384:X *46:8 15.1571 
2 *46:8 *46:12 8.875 
3 *46:12 *46:18 14.9107 
4 *46:18 *377:CLK 18.6393 
5 *46:18 *369:CLK 20.9071 
6 *46:12 *378:CLK 9.3 