*SPEF "ieee 1481-1999"
*DESIGN "dig"
*DATE "20:11:06 Saturday April 05, 2025"
*VENDOR "The OpenROAD Project"
*PROGRAM "OpenROAD"
*VERSION "edf00dff99f6c40d67a30c0e22a8191c5d2ed9d6"
*DESIGN_FLOW "NAME_SCOPE LOCAL" "PIN_CAP NONE"
*DIVIDER /
*DELIMITER :
*BUS_DELIMITER []
*T_UNIT 1 NS
*C_UNIT 1 PF
*R_UNIT 1 OHM
*L_UNIT 1 HENRY

*NAME_MAP
*3 clk
*4 counter_out[0]
*5 counter_out[1]
*6 counter_out[2]
*7 counter_out[3]
*8 counter_out[4]
*9 counter_out[5]
*10 counter_out[6]
*11 counter_out[7]
*12 trigger
*13 _00_
*14 _01_
*15 _02_
*16 _03_
*17 _04_
*18 _05_
*19 _06_
*20 _07_
*21 _08_
*22 _09_
*23 _10_
*24 _11_
*25 _12_
*26 _13_
*27 _14_
*28 _15_
*29 _16_
*30 _17_
*31 _18_
*32 _19_
*33 _20_
*34 _21_
*35 _22_
*36 _23_
*37 _24_
*38 _25_
*39 _26_
*40 _27_
*41 _28_
*42 _29_
*43 _30_
*44 clknet_0_clk
*45 clknet_1_0__leaf_clk
*46 clknet_1_1__leaf_clk
*47 counter\[0\]
*48 counter\[1\]
*49 counter\[2\]
*50 counter\[3\]
*51 counter\[4\]
*52 counter\[5\]
*53 counter\[6\]
*54 counter\[7\]
*55 net1
*56 net10
*57 net11
*58 net12
*59 net13
*60 net14
*61 net15
*62 net16
*63 net17
*64 net18
*65 net19
*66 net2
*67 net20
*68 net21
*69 net22
*70 net23
*71 net24
*72 net25
*73 net26
*74 net27
*75 net28
*76 net3
*77 net4
*78 net5
*79 net6
*80 net7
*81 net8
*82 net9
*83 trigger_prev
*84 FILLER_0_12
*85 FILLER_0_15
*86 FILLER_0_18
*87 FILLER_0_29
*88 FILLER_0_3
*89 FILLER_0_53
*90 FILLER_0_57
*91 FILLER_0_6
*92 FILLER_0_69
*93 FILLER_0_9
*94 FILLER_10_29
*95 FILLER_10_3
*96 FILLER_11_12
*97 FILLER_11_3
*98 FILLER_11_39
*99 FILLER_11_57
*100 FILLER_11_6
*101 FILLER_11_9
*102 FILLER_12_12
*103 FILLER_12_15
*104 FILLER_12_29
*105 FILLER_12_57
*106 FILLER_12_6
*107 FILLER_12_73
*108 FILLER_12_9
*109 FILLER_1_12
*110 FILLER_1_15
*111 FILLER_1_3
*112 FILLER_1_6
*113 FILLER_1_73
*114 FILLER_1_9
*115 FILLER_2_29
*116 FILLER_2_3
*117 FILLER_2_52
*118 FILLER_2_6
*119 FILLER_2_69
*120 FILLER_2_9
*121 FILLER_3_12
*122 FILLER_3_3
*123 FILLER_3_30
*124 FILLER_3_6
*125 FILLER_3_73
*126 FILLER_3_9
*127 FILLER_4_12
*128 FILLER_4_3
*129 FILLER_4_49
*130 FILLER_4_6
*131 FILLER_4_70
*132 FILLER_4_9
*133 FILLER_5_12
*134 FILLER_5_15
*135 FILLER_5_28
*136 FILLER_5_3
*137 FILLER_5_47
*138 FILLER_5_6
*139 FILLER_5_74
*140 FILLER_5_9
*141 FILLER_6_12
*142 FILLER_6_15
*143 FILLER_6_18
*144 FILLER_6_21
*145 FILLER_6_29
*146 FILLER_6_3
*147 FILLER_6_52
*148 FILLER_6_6
*149 FILLER_6_70
*150 FILLER_6_9
*151 FILLER_7_12
*152 FILLER_7_3
*153 FILLER_7_39
*154 FILLER_7_6
*155 FILLER_7_73
*156 FILLER_7_9
*157 FILLER_8_29
*158 FILLER_8_3
*159 FILLER_8_49
*160 FILLER_8_6
*161 FILLER_9_12
*162 FILLER_9_3
*163 FILLER_9_6
*164 FILLER_9_73
*165 FILLER_9_9
*166 PHY_EDGE_ROW_0_Left_13
*167 PHY_EDGE_ROW_0_Right_0
*168 PHY_EDGE_ROW_10_Left_23
*169 PHY_EDGE_ROW_10_Right_10
*170 PHY_EDGE_ROW_11_Left_24
*171 PHY_EDGE_ROW_11_Right_11
*172 PHY_EDGE_ROW_12_Left_25
*173 PHY_EDGE_ROW_12_Right_12
*174 PHY_EDGE_ROW_1_Left_14
*175 PHY_EDGE_ROW_1_Right_1
*176 PHY_EDGE_ROW_2_Left_15
*177 PHY_EDGE_ROW_2_Right_2
*178 PHY_EDGE_ROW_3_Left_16
*179 PHY_EDGE_ROW_3_Right_3
*180 PHY_EDGE_ROW_4_Left_17
*181 PHY_EDGE_ROW_4_Right_4
*182 PHY_EDGE_ROW_5_Left_18
*183 PHY_EDGE_ROW_5_Right_5
*184 PHY_EDGE_ROW_6_Left_19
*185 PHY_EDGE_ROW_6_Right_6
*186 PHY_EDGE_ROW_7_Left_20
*187 PHY_EDGE_ROW_7_Right_7
*188 PHY_EDGE_ROW_8_Left_21
*189 PHY_EDGE_ROW_8_Right_8
*190 PHY_EDGE_ROW_9_Left_22
*191 PHY_EDGE_ROW_9_Right_9
*192 TAP_TAPCELL_ROW_0_26
*193 TAP_TAPCELL_ROW_0_27
*194 TAP_TAPCELL_ROW_10_37
*195 TAP_TAPCELL_ROW_11_38
*196 TAP_TAPCELL_ROW_12_39
*197 TAP_TAPCELL_ROW_12_40
*198 TAP_TAPCELL_ROW_1_28
*199 TAP_TAPCELL_ROW_2_29
*200 TAP_TAPCELL_ROW_3_30
*201 TAP_TAPCELL_ROW_4_31
*202 TAP_TAPCELL_ROW_5_32
*203 TAP_TAPCELL_ROW_6_33
*204 TAP_TAPCELL_ROW_7_34
*205 TAP_TAPCELL_ROW_8_35
*206 TAP_TAPCELL_ROW_9_36
*207 _31_
*208 _32_
*209 _33_
*210 _34_
*211 _35_
*212 _36_
*213 _37_
*214 _38_
*215 _39_
*216 _40_
*217 _41_
*218 _42_
*219 _43_
*220 _44_
*221 _45_
*222 _46_
*223 _47_
*224 _48_
*225 _49_
*226 _50_
*227 _51_
*228 _52_
*229 _53_
*230 _54_
*231 _55_
*232 _56_
*233 _57_
*234 _58_
*235 _59_
*236 _60_
*237 _61_
*238 _62_
*239 _63_
*240 _64_
*241 _65_
*242 _66_
*243 _67_
*244 _68_
*245 _69_
*246 _70_
*247 _71_
*248 _72_
*249 _73_
*250 _74_
*251 _75_
*252 _76_
*253 _77_
*254 _78_
*255 clkbuf_0_clk
*256 clkbuf_1_0__f_clk
*257 clkbuf_1_1__f_clk
*258 clkload0
*259 hold1
*260 hold10
*261 hold11
*262 hold12
*263 hold13
*264 hold14
*265 hold15
*266 hold16
*267 hold17
*268 hold18
*269 hold19
*270 hold2
*271 hold3
*272 hold4
*273 hold5
*274 hold6
*275 hold7
*276 hold8
*277 hold9
*278 input1
*279 output2
*280 output3
*281 output4
*282 output5
*283 output6
*284 output7
*285 output8
*286 output9

*PORTS
clk I
counter_out[0] O
counter_out[1] O
counter_out[2] O
counter_out[3] O
counter_out[4] O
counter_out[5] O
counter_out[6] O
counter_out[7] O
trigger I

*D_NET *3 0.00446089
*CONN
*P clk I
*I *255:A I *D sky130_fd_sc_hd__clkbuf_16
*CAP
1 clk 0.001858
2 *255:A 0
3 *3:11 0.001858
4 *3:11 *211:B1 0
5 *3:11 *220:A1 2.76611e-06
6 *3:11 *16:12 0.000166522
7 *3:11 *32:8 9.22856e-05
8 *3:11 *45:55 0.000171848
9 *3:11 *47:33 7.23795e-05
10 *3:11 *47:106 3.57337e-05
11 *3:11 *47:125 0.000161121
12 *3:11 *48:75 0
13 *3:11 *77:27 4.22374e-05
*RES
1 clk *3:11 41.0069 
2 *3:11 *255:A 23 
*END

*D_NET *4 0.00475819
*CONN
*P counter_out[0] O
*I *279:X O *D sky130_fd_sc_hd__buf_2
*CAP
1 counter_out[0] 0.000733868
2 *279:X 7.99533e-05
3 *4:12 0.00229914
4 *4:8 0.00164523
5 counter_out[0] counter_out[1] 0
*RES
1 *279:X *4:8 39.2014 
2 *4:8 *4:12 35.6314 
3 *4:12 counter_out[0] 31.0099 
*END

*D_NET *5 0.00400226
*CONN
*P counter_out[1] O
*I *280:X O *D sky130_fd_sc_hd__buf_2
*CAP
1 counter_out[1] 0.000611984
2 *280:X 0.000505487
3 *5:10 0.00111747
4 counter_out[1] counter_out[2] 0
5 counter_out[1] *281:A 0.000382564
6 counter_out[1] *6:8 0.000398703
7 counter_out[1] *7:8 0.000326973
8 counter_out[1] *77:10 0.000219882
9 counter_out[1] *78:35 8.26312e-05
10 *5:10 *249:CLK 9.75779e-05
11 *5:10 *249:D 9.07294e-05
12 *5:10 *78:18 0.000168257
13 counter_out[0] counter_out[1] 0
*RES
1 *280:X *5:10 48.1707 
2 *5:10 counter_out[1] 20.8714 
*END

*D_NET *6 0.00125474
*CONN
*P counter_out[2] O
*I *281:X O *D sky130_fd_sc_hd__buf_2
*CAP
1 counter_out[2] 0.000236985
2 *281:X 0.000191033
3 *6:8 0.000428018
4 counter_out[2] counter_out[3] 0
5 counter_out[1] counter_out[2] 0
6 counter_out[1] *6:8 0.000398703
*RES
1 *281:X *6:8 43.2511 
2 *6:8 counter_out[2] 8.84373 
*END

*D_NET *7 0.00147276
*CONN
*P counter_out[3] O
*I *282:X O *D sky130_fd_sc_hd__buf_2
*CAP
1 counter_out[3] 0.00024605
2 *282:X 0.000251841
3 *7:8 0.000497891
4 counter_out[3] counter_out[4] 0
5 *7:8 *8:10 6.97776e-05
6 *7:8 *78:35 0
7 *7:8 *79:21 8.02307e-05
8 counter_out[1] *7:8 0.000326973
9 counter_out[2] counter_out[3] 0
*RES
1 *282:X *7:8 44.6596 
2 *7:8 counter_out[3] 8.84373 
*END

*D_NET *8 0.00158958
*CONN
*P counter_out[4] O
*I *283:X O *D sky130_fd_sc_hd__buf_2
*CAP
1 counter_out[4] 0.00021643
2 *283:X 0.000390594
3 *8:10 0.000607024
4 counter_out[4] counter_out[5] 0
5 *8:10 *9:8 0.000185803
6 *8:10 *79:21 0.000119954
7 counter_out[3] counter_out[4] 0
8 *7:8 *8:10 6.97776e-05
*RES
1 *283:X *8:10 46.6896 
2 *8:10 counter_out[4] 8.75787 
*END

*D_NET *9 0.00169161
*CONN
*P counter_out[5] O
*I *284:X O *D sky130_fd_sc_hd__buf_2
*CAP
1 counter_out[5] 0.000259892
2 *284:X 0.000448793
3 *9:8 0.000708685
4 counter_out[5] counter_out[6] 0
5 *9:8 *25:10 0
6 *9:8 *43:32 0
7 *9:8 *43:38 0
8 *9:8 *51:81 6.7177e-06
9 *9:8 *59:10 4.08641e-05
10 *9:8 *79:21 4.08537e-05
11 *9:8 *82:10 0
12 counter_out[4] counter_out[5] 0
13 *8:10 *9:8 0.000185803
*RES
1 *284:X *9:8 47.4768 
2 *9:8 counter_out[5] 8.84373 
*END

*D_NET *10 0.00540924
*CONN
*P counter_out[6] O
*I *285:X O *D sky130_fd_sc_hd__buf_2
*CAP
1 counter_out[6] 0.000588514
2 *285:X 0.00128315
3 *10:6 0.00187167
4 counter_out[6] counter_out[7] 0
5 *10:6 *227:A1 0.000584148
6 *10:6 *227:B1_N 5.47808e-05
7 *10:6 *276:A 0.000969823
8 *10:6 *42:10 7.44161e-06
9 *10:6 *55:14 1.39317e-05
10 *10:6 *71:18 3.57785e-05
11 counter_out[5] counter_out[6] 0
*RES
1 *285:X *10:6 44.1079 
2 *10:6 counter_out[6] 25.3756 
*END

*D_NET *11 0.00118283
*CONN
*P counter_out[7] O
*I *286:X O *D sky130_fd_sc_hd__buf_2
*CAP
1 counter_out[7] 0.000270576
2 *286:X 0.000320839
3 *11:8 0.000591415
4 counter_out[6] counter_out[7] 0
*RES
1 *286:X *11:8 44.6596 
2 *11:8 counter_out[7] 9.01547 
*END

*D_NET *12 0.000749971
*CONN
*P trigger I
*I *278:A I *D sky130_fd_sc_hd__buf_1
*CAP
1 trigger 0.000374986
2 *278:A 0
3 *12:17 0.000374986
*RES
1 trigger *12:17 28.2148 
2 *12:17 *278:A 23 
*END

*D_NET *13 0.000838417
*CONN
*I *238:D I *D sky130_fd_sc_hd__dfxtp_1
*I *208:X O *D sky130_fd_sc_hd__and2b_1
*CAP
1 *238:D 5.88184e-05
2 *208:X 0.000234922
3 *13:8 0.00029374
4 *238:D *45:27 1.56973e-05
5 *13:8 *238:CLK 3.31127e-05
6 *13:8 *239:CLK 6.79006e-05
7 *13:8 *29:28 0.000134226
*RES
1 *208:X *13:8 43.4271 
2 *13:8 *238:D 39.3102 
*END

*D_NET *14 0.00101118
*CONN
*I *239:D I *D sky130_fd_sc_hd__dfxtp_1
*I *210:X O *D sky130_fd_sc_hd__o21a_1
*CAP
1 *239:D 0.000153218
2 *210:X 0.00022276
3 *14:8 0.000375979
4 *14:8 *210:B1 9.17704e-05
5 *14:8 *29:26 0
6 *14:8 *29:28 0
7 *14:8 *48:27 0.000167452
*RES
1 *210:X *14:8 42.7229 
2 *14:8 *239:D 40.5737 
*END

*D_NET *15 0.00142398
*CONN
*I *240:D I *D sky130_fd_sc_hd__dfxtp_1
*I *213:X O *D sky130_fd_sc_hd__and3_1
*CAP
1 *240:D 0.000138439
2 *213:X 0.000177262
3 *15:10 0.000315701
4 *240:D *45:16 0.000126706
5 *240:D *45:27 1.79651e-05
6 *15:10 *213:B 5.50049e-05
7 *15:10 *32:8 0.000341881
8 *15:10 *47:10 0.000194318
9 *15:10 *48:37 5.67058e-05
10 *15:10 *66:28 0
*RES
1 *213:X *15:10 43.3443 
2 *15:10 *240:D 40.3666 
*END

*D_NET *16 0.00187984
*CONN
*I *241:D I *D sky130_fd_sc_hd__dfxtp_1
*I *217:X O *D sky130_fd_sc_hd__and3_1
*CAP
1 *241:D 8.20374e-05
2 *217:X 0.000329242
3 *16:12 0.000411279
4 *241:D *212:C 0.000179275
5 *241:D *45:55 9.65021e-05
6 *16:12 *210:A1 0.000181925
7 *16:12 *210:A2 5.50049e-05
8 *16:12 *217:B 0.000226501
9 *16:12 *270:A 1.07899e-05
10 *16:12 *45:55 3.70094e-05
11 *16:12 *47:106 8.85189e-05
12 *16:12 *48:75 1.52362e-05
13 *3:11 *16:12 0.000166522
*RES
1 *217:X *16:12 45.6643 
2 *16:12 *241:D 40.4236 
*END

*D_NET *17 0.000601887
*CONN
*I *267:A I *D sky130_fd_sc_hd__dlygate4sd3_1
*I *219:Y O *D sky130_fd_sc_hd__a21oi_1
*CAP
1 *267:A 0
2 *219:Y 0.000160566
3 *17:10 0.000160566
4 *17:10 *29:22 0.000121365
5 *17:10 *34:68 0
6 *17:10 *34:76 2.93845e-05
7 *17:10 *36:10 0.000114074
8 *17:10 *72:10 1.59312e-05
*RES
1 *219:Y *17:10 41.9357 
2 *17:10 *267:A 38 
*END

*D_NET *18 0.0010722
*CONN
*I *243:D I *D sky130_fd_sc_hd__dfxtp_1
*I *223:Y O *D sky130_fd_sc_hd__nor2_1
*CAP
1 *243:D 8.45249e-06
2 *223:Y 0.000195834
3 *18:10 0.000204286
4 *243:D *243:CLK 1.64354e-05
5 *18:10 *223:A 1.38448e-05
6 *18:10 *39:20 0.000376261
7 *18:10 *46:91 0.000164291
8 *18:10 *55:18 9.27917e-05
*RES
1 *223:Y *18:10 43.6964 
2 *18:10 *243:D 38.1916 
*END

*D_NET *19 0.00226968
*CONN
*I *244:D I *D sky130_fd_sc_hd__dfxtp_1
*I *226:Y O *D sky130_fd_sc_hd__nor2_1
*CAP
1 *244:D 0.000139118
2 *226:Y 0.000325691
3 *19:10 0.000464808
4 *244:D *244:CLK 5.3304e-05
5 *244:D *39:14 1.41129e-05
6 *244:D *46:33 7.2659e-05
7 *244:D *51:25 5.3304e-05
8 *19:10 *207:B 6.16439e-05
9 *19:10 *229:A_N 0.000143356
10 *19:10 *29:14 0.000183107
11 *19:10 *38:10 5.87155e-05
12 *19:10 *40:6 2.54193e-05
13 *19:10 *43:6 0.000139357
14 *19:10 *51:21 3.47781e-05
15 *19:10 *51:55 0.000474148
16 *19:10 *52:10 2.61595e-05
*RES
1 *226:Y *19:10 48.1707 
2 *19:10 *244:D 40.3666 
*END

*D_NET *20 0.00174157
*CONN
*I *245:D I *D sky130_fd_sc_hd__dfxtp_1
*I *228:X O *D sky130_fd_sc_hd__o21a_1
*CAP
1 *245:D 0.000110516
2 *228:X 0.000487865
3 *20:10 0.000598381
4 *245:D *235:A0 4.59035e-05
5 *20:10 *228:A2 2.93985e-05
6 *20:10 *257:A 0.000141888
7 *20:10 *38:10 0
8 *20:10 *42:10 0.000102389
9 *20:10 *51:55 0.000188926
10 *20:10 *52:40 2.28656e-05
11 *20:10 *53:8 0
12 *20:10 *53:25 1.34354e-05
13 *20:10 *71:10 0
14 *20:10 *74:14 0
*RES
1 *228:X *20:10 47.2386 
2 *20:10 *245:D 40.0973 
*END

*D_NET *21 0.000318905
*CONN
*I *246:D I *D sky130_fd_sc_hd__dfxtp_1
*I *230:X O *D sky130_fd_sc_hd__mux2_1
*CAP
1 *246:D 9.26771e-06
2 *230:X 0.000139515
3 *21:8 0.000148782
4 *246:D *56:6 4.9054e-06
5 *246:D *66:20 1.64354e-05
6 *21:8 *43:44 0
7 *21:8 *43:48 0
8 *21:8 *56:12 0
*RES
1 *230:X *21:8 40.2579 
2 *21:8 *246:D 38.1916 
*END

*D_NET *22 0.00119882
*CONN
*I *247:D I *D sky130_fd_sc_hd__dfxtp_1
*I *231:X O *D sky130_fd_sc_hd__mux2_1
*CAP
1 *247:D 6.00299e-05
2 *231:X 0.000242195
3 *22:8 0.000302225
4 *247:D *45:67 5.3304e-05
5 *247:D *45:82 4.08664e-05
6 *247:D *76:8 2.0302e-05
7 *247:D *77:27 0.000165569
8 *22:8 *43:44 0.000175612
9 *22:8 *43:48 0.000138718
10 *22:8 *76:14 0
*RES
1 *231:X *22:8 42.3707 
2 *22:8 *247:D 39.8902 
*END

*D_NET *23 0.000796807
*CONN
*I *261:A I *D sky130_fd_sc_hd__dlygate4sd3_1
*I *232:X O *D sky130_fd_sc_hd__mux2_1
*CAP
1 *261:A 8.58413e-05
2 *232:X 8.58413e-05
3 *261:A *56:6 0.000317087
4 *261:A *66:20 0.000308037
*RES
1 *232:X *261:A 49.9771 
*END

*D_NET *24 0.000759007
*CONN
*I *271:A I *D sky130_fd_sc_hd__dlygate4sd3_1
*I *233:X O *D sky130_fd_sc_hd__mux2_1
*CAP
1 *271:A 0
2 *233:X 0.000149264
3 *24:8 0.000149264
4 *24:8 *233:A0 5.1358e-05
5 *24:8 *43:44 0.000182826
6 *24:8 *57:10 0.000226295
*RES
1 *233:X *24:8 27.4536 
2 *24:8 *271:A 23 
*END

*D_NET *25 0.00151866
*CONN
*I *273:A I *D sky130_fd_sc_hd__dlygate4sd3_1
*I *234:X O *D sky130_fd_sc_hd__mux2_1
*CAP
1 *273:A 0.000102851
2 *234:X 0.000425036
3 *25:10 0.000527887
4 *25:10 *234:S 5.47808e-05
5 *25:10 *43:38 0
6 *25:10 *51:81 0.000108681
7 *25:10 *60:8 0.000123977
8 *25:10 *79:21 0.000175449
9 *25:10 *80:8 0
10 *9:8 *25:10 0
*RES
1 *234:X *25:10 47.1143 
2 *25:10 *273:A 39.5743 
*END

*D_NET *26 0.0016402
*CONN
*I *263:A I *D sky130_fd_sc_hd__dlygate4sd3_1
*I *235:X O *D sky130_fd_sc_hd__mux2_1
*CAP
1 *263:A 9.85732e-05
2 *235:X 0.000252346
3 *26:8 0.00035092
4 *263:A *68:10 0.00010655
5 *26:8 *214:B1 0
6 *26:8 *222:B 0
7 *26:8 *34:37 0
8 *26:8 *43:38 0
9 *26:8 *68:10 0.000507987
10 *26:8 *69:8 0.000323822
*RES
1 *235:X *26:8 45.54 
2 *26:8 *263:A 40.5271 
*END

*D_NET *27 0.000119194
*CONN
*I *275:A I *D sky130_fd_sc_hd__dlygate4sd3_1
*I *236:X O *D sky130_fd_sc_hd__mux2_1
*CAP
1 *275:A 5.9597e-05
2 *236:X 5.9597e-05
*RES
1 *236:X *275:A 47.1186 
*END

*D_NET *28 0.00138324
*CONN
*I *277:A I *D sky130_fd_sc_hd__dlygate4sd3_1
*I *237:X O *D sky130_fd_sc_hd__mux2_1
*CAP
1 *277:A 6.33812e-05
2 *237:X 0.000131023
3 *28:8 0.000194404
4 *277:A *236:A0 0.00048975
5 *277:A *43:21 0.000447976
6 *277:A *43:30 5.67058e-05
7 *28:8 *237:S 0
8 *28:8 *61:8 0
*RES
1 *237:X *28:8 39.9057 
2 *28:8 *277:A 43.3857 
*END

*D_NET *29 0.0103526
*CONN
*I *222:A I *D sky130_fd_sc_hd__nand2_1
*I *225:B1 I *D sky130_fd_sc_hd__o21ai_1
*I *227:B1_N I *D sky130_fd_sc_hd__a21boi_1
*I *218:B1 I *D sky130_fd_sc_hd__o21ai_1
*I *217:A I *D sky130_fd_sc_hd__and3_1
*I *208:B I *D sky130_fd_sc_hd__and2b_1
*I *209:B1_N I *D sky130_fd_sc_hd__a21boi_1
*I *213:A I *D sky130_fd_sc_hd__and3_1
*I *207:Y O *D sky130_fd_sc_hd__nand2b_2
*CAP
1 *222:A 0
2 *225:B1 0.000167094
3 *227:B1_N 0.000170554
4 *218:B1 0
5 *217:A 0
6 *208:B 4.50142e-05
7 *209:B1_N 0
8 *213:A 0.000357193
9 *207:Y 0
10 *29:105 0.000743783
11 *29:67 0.000509719
12 *29:28 0.000797517
13 *29:26 0.00066207
14 *29:22 0.000748849
15 *29:14 0.00109588
16 *29:6 0.000695833
17 *29:4 0.000743783
18 *213:A *48:37 0
19 *213:A *66:28 5.67058e-05
20 *225:B1 *223:A 4.25892e-06
21 *225:B1 *227:A1 9.84851e-05
22 *225:B1 *227:A2 5.3304e-05
23 *225:B1 *228:A2 5.3304e-05
24 *225:B1 *40:19 7.49001e-05
25 *225:B1 *81:27 0
26 *227:B1_N *42:10 1.24376e-05
27 *227:B1_N *55:14 0
28 *227:B1_N *81:27 0
29 *29:14 *207:B 3.70094e-05
30 *29:14 *218:A1 7.40053e-05
31 *29:14 *39:14 0.000400204
32 *29:14 *52:10 0.000111852
33 *29:14 *52:40 0.000305509
34 *29:14 *72:10 2.18506e-05
35 *29:22 *34:68 0
36 *29:22 *34:76 9.64022e-05
37 *29:22 *39:20 0
38 *29:26 *210:B1 0
39 *29:28 *48:27 0
40 *29:28 *48:37 0
41 *29:67 *207:B 3.47781e-05
42 *29:67 *223:A 2.57346e-05
43 *29:67 *229:A_N 0.000179804
44 *29:67 *38:10 0
45 *29:67 *40:19 1.40281e-05
46 *29:67 *52:40 0.000165406
47 *29:67 *55:14 0
48 *29:67 *55:18 0
49 *29:105 *242:CLK 1.01436e-05
50 *29:105 *38:10 0.000119828
51 *29:105 *39:14 0.000310949
52 *29:105 *46:33 0.000451002
53 *29:105 *46:65 0.000218952
54 *29:105 *51:55 0.000137651
55 *29:105 *83:8 5.3304e-05
56 *10:6 *227:B1_N 5.47808e-05
57 *13:8 *29:28 0.000134226
58 *14:8 *29:26 0
59 *14:8 *29:28 0
60 *17:10 *29:22 0.000121365
61 *19:10 *29:14 0.000183107
*RES
1 *207:Y *29:4 23 
2 *29:4 *29:6 15 
3 *29:6 *29:14 28.2157 
4 *29:14 *29:22 41.2479 
5 *29:22 *29:26 17.9621 
6 *29:26 *29:28 9.30071 
7 *29:28 *213:A 44.3179 
8 *29:28 *209:B1_N 38 
9 *29:26 *208:B 38.6214 
10 *29:22 *217:A 23 
11 *29:14 *218:B1 23 
12 *29:6 *29:67 4.54679 
13 *29:67 *227:B1_N 41.2211 
14 *29:67 *225:B1 41.5732 
15 *29:4 *29:105 46.095 
16 *29:105 *222:A 23 
*END

*D_NET *30 0.00194957
*CONN
*I *210:B1 I *D sky130_fd_sc_hd__o21a_1
*I *209:Y O *D sky130_fd_sc_hd__a21boi_1
*CAP
1 *210:B1 0.000362417
2 *209:Y 0.000153105
3 *30:8 0.000515523
4 *210:B1 *47:10 6.63698e-05
5 *210:B1 *47:76 0.00013
6 *210:B1 *48:27 0.000540793
7 *210:B1 *48:75 0
8 *210:B1 *75:8 2.79004e-05
9 *30:8 *209:A1 2.61408e-05
10 *30:8 *209:A2 2.93747e-05
11 *30:8 *66:20 6.17437e-06
12 *14:8 *210:B1 9.17704e-05
13 *29:26 *210:B1 0
*RES
1 *209:Y *30:8 40.0507 
2 *30:8 *210:B1 48.7093 
*END

*D_NET *31 0.000490366
*CONN
*I *213:B I *D sky130_fd_sc_hd__and3_1
*I *211:X O *D sky130_fd_sc_hd__a21o_1
*CAP
1 *213:B 0.000170401
2 *211:X 0.000170401
3 *213:B *48:37 9.45591e-05
4 *15:10 *213:B 5.50049e-05
*RES
1 *211:X *213:B 48.5271 
*END

*D_NET *32 0.0021531
*CONN
*I *213:C I *D sky130_fd_sc_hd__and3_1
*I *212:Y O *D sky130_fd_sc_hd__nand3_1
*CAP
1 *213:C 8.48813e-05
2 *212:Y 0.000409977
3 *32:8 0.000494858
4 *213:C *48:37 9.50268e-05
5 *32:8 *45:55 0.000299178
6 *32:8 *47:10 4.42688e-05
7 *32:8 *47:33 8.21654e-05
8 *32:8 *47:76 0.000122294
9 *32:8 *48:10 8.62876e-05
10 *32:8 *66:28 0
11 *3:11 *32:8 9.22856e-05
12 *15:10 *32:8 0.000341881
*RES
1 *212:Y *32:8 49.0614 
2 *32:8 *213:C 39.885 
*END

*D_NET *33 0.00309008
*CONN
*I *217:B I *D sky130_fd_sc_hd__and3_1
*I *214:X O *D sky130_fd_sc_hd__a31o_1
*CAP
1 *217:B 0.00033312
2 *214:X 0.000245004
3 *33:10 0.000578124
4 *217:B *210:A1 0.000180218
5 *217:B *217:C 0.000667028
6 *217:B *270:A 0.00019338
7 *217:B *34:10 6.23934e-05
8 *33:10 *256:A 0.000262829
9 *33:10 *257:A 8.62876e-05
10 *33:10 *34:18 0.000183102
11 *33:10 *34:107 6.15719e-05
12 *33:10 *51:81 1.05235e-05
13 *16:12 *217:B 0.000226501
*RES
1 *214:X *33:10 43.3443 
2 *33:10 *217:B 49.6414 
*END

*D_NET *34 0.0108124
*CONN
*I *216:A I *D sky130_fd_sc_hd__inv_2
*I *220:A2 I *D sky130_fd_sc_hd__a21o_1
*I *219:A2 I *D sky130_fd_sc_hd__a21oi_1
*I *218:A2 I *D sky130_fd_sc_hd__o21ai_1
*I *224:D I *D sky130_fd_sc_hd__and4_1
*I *221:C I *D sky130_fd_sc_hd__and3_1
*I *215:X O *D sky130_fd_sc_hd__and4_2
*CAP
1 *216:A 0
2 *220:A2 2.34823e-05
3 *219:A2 0
4 *218:A2 0
5 *224:D 0
6 *221:C 0.000177496
7 *215:X 0
8 *34:107 0.000443077
9 *34:76 0.00036864
10 *34:68 0.000760572
11 *34:54 0.000645715
12 *34:43 2.97989e-05
13 *34:37 0.000754108
14 *34:20 0.000901806
15 *34:18 0.000221981
16 *34:10 0.000704334
17 *34:4 0.00069513
18 *221:C *51:68 2.44035e-05
19 *221:C *51:81 0.000140308
20 *34:10 *217:C 5.79559e-05
21 *34:10 *256:A 2.40392e-05
22 *34:18 *222:B 0
23 *34:18 *257:A 6.77978e-05
24 *34:18 *47:125 0.000230399
25 *34:18 *48:75 0.000222948
26 *34:18 *48:83 0.000240041
27 *34:37 *222:B 6.4393e-05
28 *34:37 *224:A 2.64616e-05
29 *34:37 *224:C 5.6222e-05
30 *34:37 *236:A0 9.03364e-06
31 *34:37 *257:A 0
32 *34:37 *43:6 0.000532072
33 *34:37 *43:12 2.61699e-05
34 *34:37 *51:81 0.000220302
35 *34:37 *53:8 0.000376775
36 *34:37 *54:10 0.000324733
37 *34:37 *68:10 0
38 *34:37 *71:10 0.000126574
39 *34:43 *52:40 2.28656e-05
40 *34:43 *74:14 5.60276e-05
41 *34:54 *220:A1 0.000122217
42 *34:54 *256:A 1.31414e-05
43 *34:54 *37:8 0.00040403
44 *34:54 *48:75 0.000358854
45 *34:68 *220:B1 0
46 *34:68 *242:CLK 6.70959e-05
47 *34:68 *36:10 0
48 *34:68 *52:10 0
49 *34:68 *73:10 1.58805e-05
50 *34:107 *214:A3 0
51 *34:107 *256:A 0.000390854
52 *34:107 *270:A 9.03364e-06
53 *34:107 *35:12 0.000152176
54 *34:107 *47:56 0
55 *34:107 *49:31 0.000270554
56 *217:B *34:10 6.23934e-05
57 *17:10 *34:68 0
58 *17:10 *34:76 2.93845e-05
59 *26:8 *34:37 0
60 *29:22 *34:68 0
61 *29:22 *34:76 9.64022e-05
62 *33:10 *34:18 0.000183102
63 *33:10 *34:107 6.15719e-05
*RES
1 *215:X *34:4 23 
2 *34:4 *34:10 18.6043 
3 *34:10 *34:18 36.8979 
4 *34:18 *34:20 15 
5 *34:20 *221:C 25.61 
6 *34:20 *34:37 48.3943 
7 *34:37 *34:43 30.8493 
8 *34:43 *224:D 23 
9 *34:10 *34:54 22.6643 
10 *34:54 *34:68 36.6286 
11 *34:68 *34:76 36.5664 
12 *34:76 *218:A2 23 
13 *34:68 *219:A2 23 
14 *34:54 *220:A2 23.4971 
15 *34:4 *34:107 40.3986 
16 *34:107 *216:A 23 
*END

*D_NET *35 0.00312876
*CONN
*I *217:C I *D sky130_fd_sc_hd__and3_1
*I *216:Y O *D sky130_fd_sc_hd__inv_2
*CAP
1 *217:C 0.000378021
2 *216:Y 0.000440402
3 *35:12 0.000818423
4 *35:12 *256:A 0.0004287
5 *35:12 *49:18 0.000186054
6 *217:B *217:C 0.000667028
7 *34:10 *217:C 5.79559e-05
8 *34:107 *35:12 0.000152176
*RES
1 *216:Y *35:12 47.1557 
2 *35:12 *217:C 46.555 
*END

*D_NET *36 0.000643106
*CONN
*I *219:B1 I *D sky130_fd_sc_hd__a21oi_1
*I *218:Y O *D sky130_fd_sc_hd__o21ai_1
*CAP
1 *219:B1 0
2 *218:Y 0.000175264
3 *36:10 0.000175264
4 *36:10 *218:A1 0.000137651
5 *36:10 *72:10 4.08537e-05
6 *36:10 *73:10 0
7 *17:10 *36:10 0.000114074
8 *34:68 *36:10 0
*RES
1 *218:Y *36:10 41.1279 
2 *36:10 *219:B1 38 
*END

*D_NET *37 0.00258483
*CONN
*I *222:B I *D sky130_fd_sc_hd__nand2_1
*I *220:X O *D sky130_fd_sc_hd__a21o_1
*CAP
1 *222:B 0.000272373
2 *220:X 0.000460285
3 *37:8 0.000732658
4 *222:B *214:B1 8.16253e-05
5 *222:B *69:8 0
6 *37:8 *44:8 0.000302073
7 *37:8 *48:75 0.000130603
8 *37:8 *48:104 0.000136788
9 *26:8 *222:B 0
10 *34:18 *222:B 0
11 *34:37 *222:B 6.4393e-05
12 *34:54 *37:8 0.00040403
*RES
1 *220:X *37:8 48.15 
2 *37:8 *222:B 43.075 
*END

*D_NET *38 0.00446717
*CONN
*I *225:A2 I *D sky130_fd_sc_hd__o21ai_1
*I *223:A I *D sky130_fd_sc_hd__nor2_1
*I *221:X O *D sky130_fd_sc_hd__and3_1
*CAP
1 *225:A2 0.000199038
2 *223:A 0.000624927
3 *221:X 0.000144147
4 *38:10 0.00123534
5 *38:8 0.000555526
6 *223:A *229:A_N 2.93845e-05
7 *223:A *40:19 1.01436e-05
8 *223:A *43:6 5.85822e-06
9 *225:A2 *40:19 0.000127528
10 *225:A2 *41:10 0.000124811
11 *225:A2 *74:14 3.15911e-05
12 *38:8 *242:CLK 5.50049e-05
13 *38:8 *51:8 2.25149e-05
14 *38:8 *51:68 1.41244e-05
15 *38:10 *229:A_N 1.34182e-05
16 *38:10 *242:CLK 0.000136486
17 *38:10 *41:10 2.5343e-05
18 *38:10 *46:65 0.000205648
19 *38:10 *51:21 0.000138718
20 *38:10 *51:55 0.000482051
21 *38:10 *74:14 6.3179e-05
22 *225:B1 *223:A 4.25892e-06
23 *18:10 *223:A 1.38448e-05
24 *19:10 *38:10 5.87155e-05
25 *20:10 *38:10 0
26 *29:67 *223:A 2.57346e-05
27 *29:67 *38:10 0
28 *29:105 *38:10 0.000119828
*RES
1 *221:X *38:8 40.0507 
2 *38:8 *38:10 10.8854 
3 *38:10 *223:A 47.2489 
4 *38:10 *225:A2 41.6768 
*END

*D_NET *39 0.00394642
*CONN
*I *223:B I *D sky130_fd_sc_hd__nor2_1
*I *222:Y O *D sky130_fd_sc_hd__nand2_1
*CAP
1 *223:B 0
2 *222:Y 0.000779235
3 *39:20 0.00039986
4 *39:14 0.0011791
5 *39:14 *218:A1 9.32275e-05
6 *39:14 *244:CLK 2.46348e-05
7 *39:14 *46:33 8.80169e-05
8 *39:14 *51:25 9.58714e-05
9 *39:14 *72:10 0.000143655
10 *39:14 *73:10 2.18409e-05
11 *39:20 *52:10 0
12 *39:20 *52:40 0
13 *39:20 *55:18 1.94522e-05
14 *244:D *39:14 1.41129e-05
15 *18:10 *39:20 0.000376261
16 *29:14 *39:14 0.000400204
17 *29:22 *39:20 0
18 *29:105 *39:14 0.000310949
*RES
1 *222:Y *39:14 39.4264 
2 *39:14 *39:20 38.5964 
3 *39:20 *223:B 23 
*END

*D_NET *40 0.00189055
*CONN
*I *228:A2 I *D sky130_fd_sc_hd__o21a_1
*I *227:A2 I *D sky130_fd_sc_hd__a21boi_1
*I *226:A I *D sky130_fd_sc_hd__nor2_1
*I *224:X O *D sky130_fd_sc_hd__and4_1
*CAP
1 *228:A2 0.000124103
2 *227:A2 3.48521e-05
3 *226:A 4.92053e-05
4 *224:X 0.000131027
5 *40:19 0.000238894
6 *40:6 0.000260172
7 *227:A2 *227:A1 2.32004e-05
8 *227:A2 *42:10 9.58714e-05
9 *228:A2 *227:A1 0.000338977
10 *228:A2 *42:10 0.000202521
11 *40:6 *43:6 3.70071e-06
12 *223:A *40:19 1.01436e-05
13 *225:A2 *40:19 0.000127528
14 *225:B1 *227:A2 5.3304e-05
15 *225:B1 *228:A2 5.3304e-05
16 *225:B1 *40:19 7.49001e-05
17 *19:10 *40:6 2.54193e-05
18 *20:10 *228:A2 2.93985e-05
19 *29:67 *40:19 1.40281e-05
*RES
1 *224:X *40:6 24.5743 
2 *40:6 *226:A 23.8493 
3 *40:6 *40:19 31.9057 
4 *40:19 *227:A2 24.0979 
5 *40:19 *228:A2 28.075 
*END

*D_NET *41 0.000501952
*CONN
*I *226:B I *D sky130_fd_sc_hd__nor2_1
*I *225:Y O *D sky130_fd_sc_hd__o21ai_1
*CAP
1 *226:B 0
2 *225:Y 0.000115818
3 *41:10 0.000115818
4 *41:10 *42:10 5.3304e-05
5 *41:10 *74:14 6.68587e-05
6 *225:A2 *41:10 0.000124811
7 *38:10 *41:10 2.5343e-05
*RES
1 *225:Y *41:10 40.5271 
2 *41:10 *226:B 38 
*END

*D_NET *42 0.00107002
*CONN
*I *228:B1 I *D sky130_fd_sc_hd__o21a_1
*I *227:Y O *D sky130_fd_sc_hd__a21boi_1
*CAP
1 *228:B1 0
2 *227:Y 0.000289199
3 *42:10 0.000289199
4 *42:10 *227:A1 1.76557e-05
5 *42:10 *55:14 0
6 *227:A2 *42:10 9.58714e-05
7 *227:B1_N *42:10 1.24376e-05
8 *228:A2 *42:10 0.000202521
9 *10:6 *42:10 7.44161e-06
10 *20:10 *42:10 0.000102389
11 *41:10 *42:10 5.3304e-05
*RES
1 *227:Y *42:10 29.38 
2 *42:10 *228:B1 23 
*END

*D_NET *43 0.0122244
*CONN
*I *237:S I *D sky130_fd_sc_hd__mux2_1
*I *234:S I *D sky130_fd_sc_hd__mux2_1
*I *233:S I *D sky130_fd_sc_hd__mux2_1
*I *232:S I *D sky130_fd_sc_hd__mux2_1
*I *230:S I *D sky130_fd_sc_hd__mux2_1
*I *231:S I *D sky130_fd_sc_hd__mux2_1
*I *236:S I *D sky130_fd_sc_hd__mux2_1
*I *235:S I *D sky130_fd_sc_hd__mux2_1
*I *229:Y O *D sky130_fd_sc_hd__nand2b_4
*CAP
1 *237:S 0.000232797
2 *234:S 0.000194779
3 *233:S 0
4 *232:S 0
5 *230:S 0.000244127
6 *231:S 9.62319e-05
7 *236:S 0
8 *235:S 0
9 *229:Y 0.000873343
10 *43:48 0.000482391
11 *43:44 0.000883112
12 *43:38 0.00117395
13 *43:32 0.00107875
14 *43:30 0.000821529
15 *43:21 0.000350739
16 *43:12 0.000233047
17 *43:6 0.00131949
18 *230:S *230:A0 0.000461122
19 *231:S *230:A0 0.000313249
20 *231:S *76:14 9.84794e-05
21 *237:S *276:A 5.50106e-05
22 *237:S *63:6 6.17437e-06
23 *237:S *82:10 0
24 *43:6 *229:A_N 1.21972e-05
25 *43:6 *236:A0 1.81737e-05
26 *43:12 *46:10 0
27 *43:12 *46:12 0
28 *43:12 *54:10 0.000108569
29 *43:12 *64:8 0
30 *43:12 *68:10 0
31 *43:12 *81:10 8.4047e-05
32 *43:30 *236:A0 4.95081e-05
33 *43:32 *46:10 0
34 *43:32 *46:12 0
35 *43:32 *64:8 0
36 *43:32 *82:10 0
37 *43:38 *250:CLK 0
38 *43:38 *46:12 0
39 *43:38 *60:8 8.15327e-05
40 *43:38 *68:10 0
41 *43:38 *79:21 0
42 *43:38 *80:8 0.000347517
43 *43:44 *233:A0 1.21972e-05
44 *43:44 *233:A1 0.000359332
45 *43:44 *249:CLK 7.47408e-05
46 *43:44 *45:10 5.26204e-05
47 *43:44 *45:82 0.000185755
48 *43:44 *45:89 2.22079e-05
49 *43:44 *57:10 5.94125e-05
50 *43:44 *58:8 7.45278e-05
51 *43:44 *76:14 0
52 *43:48 *76:14 0
53 *223:A *43:6 5.85822e-06
54 *277:A *43:21 0.000447976
55 *277:A *43:30 5.67058e-05
56 *9:8 *43:32 0
57 *9:8 *43:38 0
58 *19:10 *43:6 0.000139357
59 *21:8 *43:44 0
60 *21:8 *43:48 0
61 *22:8 *43:44 0.000175612
62 *22:8 *43:48 0.000138718
63 *24:8 *43:44 0.000182826
64 *25:10 *234:S 5.47808e-05
65 *25:10 *43:38 0
66 *26:8 *43:38 0
67 *28:8 *237:S 0
68 *34:37 *43:6 0.000532072
69 *34:37 *43:12 2.61699e-05
70 *40:6 *43:6 3.70071e-06
*RES
1 *229:Y *43:6 34.5793 
2 *43:6 *43:12 35.075 
3 *43:12 *235:S 23 
4 *43:6 *43:21 5.75857 
5 *43:21 *236:S 23 
6 *43:21 *43:30 18.0036 
7 *43:30 *43:32 8.24429 
8 *43:32 *43:38 24.57 
9 *43:38 *43:44 31.7993 
10 *43:44 *43:48 17.61 
11 *43:48 *231:S 26.48 
12 *43:48 *230:S 30.3329 
13 *43:44 *232:S 38 
14 *43:38 *233:S 23 
15 *43:32 *234:S 41.48 
16 *43:30 *237:S 41.9357 
*END

*D_NET *44 0.00420727
*CONN
*I *257:A I *D sky130_fd_sc_hd__clkbuf_16
*I *256:A I *D sky130_fd_sc_hd__clkbuf_16
*I *255:X O *D sky130_fd_sc_hd__clkbuf_16
*CAP
1 *257:A 0.000567641
2 *256:A 0.000407622
3 *255:X 0.000269566
4 *44:8 0.00124483
5 *256:A *220:A1 0
6 *257:A *220:A1 0
7 *257:A *242:CLK 0
8 *257:A *51:21 0
9 *257:A *53:8 0
10 *20:10 *257:A 0.000141888
11 *33:10 *256:A 0.000262829
12 *33:10 *257:A 8.62876e-05
13 *34:10 *256:A 2.40392e-05
14 *34:18 *257:A 6.77978e-05
15 *34:37 *257:A 0
16 *34:54 *256:A 1.31414e-05
17 *34:107 *256:A 0.000390854
18 *35:12 *256:A 0.0004287
19 *37:8 *44:8 0.000302073
*RES
1 *255:X *44:8 41.48 
2 *44:8 *256:A 48.5229 
3 *44:8 *257:A 48.005 
*END

*D_NET *45 0.00745624
*CONN
*I *249:CLK I *D sky130_fd_sc_hd__dfxtp_1
*I *248:CLK I *D sky130_fd_sc_hd__dfxtp_1
*I *246:CLK I *D sky130_fd_sc_hd__dfxtp_1
*I *247:CLK I *D sky130_fd_sc_hd__dfxtp_1
*I *258:A I *D sky130_fd_sc_hd__clkbuf_4
*I *241:CLK I *D sky130_fd_sc_hd__dfxtp_1
*I *239:CLK I *D sky130_fd_sc_hd__dfxtp_1
*I *238:CLK I *D sky130_fd_sc_hd__dfxtp_1
*I *240:CLK I *D sky130_fd_sc_hd__dfxtp_1
*I *256:X O *D sky130_fd_sc_hd__clkbuf_16
*CAP
1 *249:CLK 0.000181399
2 *248:CLK 0.000139294
3 *246:CLK 0
4 *247:CLK 0
5 *258:A 0
6 *241:CLK 0
7 *239:CLK 0.000171234
8 *238:CLK 3.29388e-05
9 *240:CLK 0
10 *256:X 0
11 *45:89 0.000338599
12 *45:82 0.000190079
13 *45:67 0.000239023
14 *45:55 0.000266622
15 *45:27 0.000924096
16 *45:23 0.00102666
17 *45:16 0.000395953
18 *45:12 0.000413527
19 *45:10 0.000195022
20 *45:6 0.000106293
21 *248:CLK *248:D 0.000313255
22 *249:CLK *280:A 0.000102807
23 *249:CLK *78:18 7.44354e-05
24 *45:10 *280:A 4.08641e-05
25 *45:10 *76:14 4.54033e-05
26 *45:12 *76:8 3.3577e-05
27 *45:12 *77:27 6.9805e-05
28 *45:16 *49:8 7.95535e-05
29 *45:16 *77:27 0.000283888
30 *45:55 *212:B 6.17437e-06
31 *45:55 *47:106 1.24376e-05
32 *45:55 *48:10 1.22803e-05
33 *45:55 *48:75 3.0647e-05
34 *45:67 *76:8 5.12328e-05
35 *45:67 *77:27 4.04206e-05
36 *45:82 *56:6 5.83407e-05
37 *45:82 *66:20 0.00014196
38 *45:82 *76:8 1.59094e-05
39 *45:89 *280:A 2.95125e-05
40 *238:D *45:27 1.56973e-05
41 *240:D *45:16 0.000126706
42 *240:D *45:27 1.79651e-05
43 *241:D *45:55 9.65021e-05
44 *247:D *45:67 5.3304e-05