*SPEF "ieee 1481-1999"
*DESIGN "dig"
*DATE "15:58:19 Sunday April 13, 2025"
*VENDOR "The OpenROAD Project"
*PROGRAM "OpenROAD"
*VERSION "edf00dff99f6c40d67a30c0e22a8191c5d2ed9d6"
*DESIGN_FLOW "NAME_SCOPE LOCAL" "PIN_CAP NONE"
*DIVIDER /
*DELIMITER :
*BUS_DELIMITER []
*T_UNIT 1 NS
*C_UNIT 1 PF
*R_UNIT 1 OHM
*L_UNIT 1 HENRY

*NAME_MAP
*3 clk
*4 counter_out[0]
*5 counter_out[1]
*6 counter_out[2]
*7 counter_out[3]
*8 counter_out[4]
*9 counter_out[5]
*10 counter_out[6]
*11 counter_out[7]
*12 trigger
*13 _00_
*14 _01_
*15 _02_
*16 _03_
*17 _04_
*18 _05_
*19 _06_
*20 _07_
*21 _08_
*22 _09_
*23 _10_
*24 _11_
*25 _12_
*26 _13_
*27 _14_
*28 _15_
*29 _16_
*30 _17_
*31 _18_
*32 _19_
*33 _20_
*34 _21_
*35 _22_
*36 _23_
*37 _24_
*38 _25_
*39 _26_
*40 _27_
*41 _28_
*42 _29_
*43 _30_
*44 clknet_0_clk
*45 clknet_1_0__leaf_clk
*46 clknet_1_1__leaf_clk
*47 counter\[0\]
*48 counter\[1\]
*49 counter\[2\]
*50 counter\[3\]
*51 counter\[4\]
*52 counter\[5\]
*53 counter\[6\]
*54 counter\[7\]
*55 net1
*56 net10
*57 net11
*58 net12
*59 net13
*60 net14
*61 net15
*62 net16
*63 net17
*64 net18
*65 net19
*66 net2
*67 net20
*68 net21
*69 net22
*70 net23
*71 net24
*72 net25
*73 net26
*74 net3
*75 net4
*76 net5
*77 net6
*78 net7
*79 net8
*80 net9
*81 trigger_prev
*82 FILLER_0_11
*83 FILLER_0_19
*84 FILLER_0_27
*85 FILLER_0_29
*86 FILLER_0_3
*87 FILLER_0_37
*88 FILLER_10_11
*89 FILLER_10_19
*90 FILLER_10_27
*91 FILLER_10_29
*92 FILLER_10_3
*93 FILLER_11_11
*94 FILLER_11_19
*95 FILLER_11_3
*96 FILLER_12_29
*97 FILLER_12_35
*98 FILLER_13_3
*99 FILLER_13_37
*100 FILLER_13_43
*101 FILLER_14_11
*102 FILLER_14_29
*103 FILLER_14_3
*104 FILLER_14_41
*105 FILLER_15_11
*106 FILLER_15_3
*107 FILLER_16_23
*108 FILLER_16_27
*109 FILLER_16_29
*110 FILLER_16_3
*111 FILLER_17_15
*112 FILLER_17_23
*113 FILLER_17_3
*114 FILLER_17_43
*115 FILLER_17_9
*116 FILLER_18_24
*117 FILLER_18_29
*118 FILLER_18_3
*119 FILLER_18_38
*120 FILLER_19_15
*121 FILLER_19_3
*122 FILLER_1_11
*123 FILLER_1_19
*124 FILLER_1_27
*125 FILLER_1_3
*126 FILLER_1_35
*127 FILLER_1_43
*128 FILLER_20_11
*129 FILLER_20_15
*130 FILLER_20_24
*131 FILLER_20_3
*132 FILLER_20_38
*133 FILLER_21_11
*134 FILLER_21_19
*135 FILLER_21_27
*136 FILLER_21_3
*137 FILLER_22_11
*138 FILLER_22_29
*139 FILLER_22_3
*140 FILLER_22_41
*141 FILLER_23_3
*142 FILLER_23_37
*143 FILLER_23_43
*144 FILLER_23_7
*145 FILLER_24_19
*146 FILLER_24_27
*147 FILLER_24_29
*148 FILLER_24_40
*149 FILLER_25_13
*150 FILLER_25_21
*151 FILLER_25_29
*152 FILLER_25_3
*153 FILLER_25_37
*154 FILLER_25_43
*155 FILLER_25_9
*156 FILLER_26_11
*157 FILLER_26_17
*158 FILLER_26_25
*159 FILLER_26_3
*160 FILLER_26_37
*161 FILLER_27_11
*162 FILLER_27_19
*163 FILLER_27_3
*164 FILLER_27_37
*165 FILLER_27_43
*166 FILLER_28_23
*167 FILLER_28_27
*168 FILLER_28_29
*169 FILLER_28_42
*170 FILLER_28_6
*171 FILLER_29_19
*172 FILLER_2_11
*173 FILLER_2_19
*174 FILLER_2_27
*175 FILLER_2_29
*176 FILLER_2_3
*177 FILLER_2_37
*178 FILLER_2_43
*179 FILLER_30_15
*180 FILLER_30_23
*181 FILLER_30_27
*182 FILLER_30_29
*183 FILLER_30_3
*184 FILLER_30_40
*185 FILLER_30_7
*186 FILLER_31_11
*187 FILLER_31_17
*188 FILLER_31_24
*189 FILLER_31_3
*190 FILLER_32_11
*191 FILLER_32_29
*192 FILLER_32_3
*193 FILLER_32_41
*194 FILLER_33_11
*195 FILLER_33_3
*196 FILLER_34_11
*197 FILLER_34_19
*198 FILLER_34_27
*199 FILLER_34_29
*200 FILLER_34_3
*201 FILLER_34_35
*202 FILLER_35_11
*203 FILLER_35_19
*204 FILLER_35_27
*205 FILLER_35_29
*206 FILLER_35_3
*207 FILLER_35_37
*208 FILLER_3_11
*209 FILLER_3_19
*210 FILLER_3_27
*211 FILLER_3_3
*212 FILLER_3_35
*213 FILLER_3_39
*214 FILLER_4_11
*215 FILLER_4_29
*216 FILLER_4_3
*217 FILLER_4_33
*218 FILLER_4_43
*219 FILLER_5_11
*220 FILLER_5_17
*221 FILLER_5_27
*222 FILLER_5_3
*223 FILLER_6_11
*224 FILLER_6_19
*225 FILLER_6_29
*226 FILLER_6_3
*227 FILLER_6_35
*228 FILLER_7_16
*229 FILLER_7_24
*230 FILLER_7_3
*231 FILLER_7_41
*232 FILLER_7_9
*233 FILLER_8_25
*234 FILLER_8_29
*235 FILLER_8_37
*236 FILLER_8_43
*237 FILLER_9_11
*238 FILLER_9_19
*239 FILLER_9_27
*240 FILLER_9_3
*241 FILLER_9_35
*242 FILLER_9_43
*243 PHY_EDGE_ROW_0_Left_36
*244 PHY_EDGE_ROW_0_Right_0
*245 PHY_EDGE_ROW_10_Left_46
*246 PHY_EDGE_ROW_10_Right_10
*247 PHY_EDGE_ROW_11_Left_47
*248 PHY_EDGE_ROW_11_Right_11
*249 PHY_EDGE_ROW_12_Left_48
*250 PHY_EDGE_ROW_12_Right_12
*251 PHY_EDGE_ROW_13_Left_49
*252 PHY_EDGE_ROW_13_Right_13
*253 PHY_EDGE_ROW_14_Left_50
*254 PHY_EDGE_ROW_14_Right_14
*255 PHY_EDGE_ROW_15_Left_51
*256 PHY_EDGE_ROW_15_Right_15
*257 PHY_EDGE_ROW_16_Left_52
*258 PHY_EDGE_ROW_16_Right_16
*259 PHY_EDGE_ROW_17_Left_53
*260 PHY_EDGE_ROW_17_Right_17
*261 PHY_EDGE_ROW_18_Left_54
*262 PHY_EDGE_ROW_18_Right_18
*263 PHY_EDGE_ROW_19_Left_55
*264 PHY_EDGE_ROW_19_Right_19
*265 PHY_EDGE_ROW_1_Left_37
*266 PHY_EDGE_ROW_1_Right_1
*267 PHY_EDGE_ROW_20_Left_56
*268 PHY_EDGE_ROW_20_Right_20
*269 PHY_EDGE_ROW_21_Left_57
*270 PHY_EDGE_ROW_21_Right_21
*271 PHY_EDGE_ROW_22_Left_58
*272 PHY_EDGE_ROW_22_Right_22
*273 PHY_EDGE_ROW_23_Left_59
*274 PHY_EDGE_ROW_23_Right_23
*275 PHY_EDGE_ROW_24_Left_60
*276 PHY_EDGE_ROW_24_Right_24
*277 PHY_EDGE_ROW_25_Left_61
*278 PHY_EDGE_ROW_25_Right_25
*279 PHY_EDGE_ROW_26_Left_62
*280 PHY_EDGE_ROW_26_Right_26
*281 PHY_EDGE_ROW_27_Left_63
*282 PHY_EDGE_ROW_27_Right_27
*283 PHY_EDGE_ROW_28_Left_64
*284 PHY_EDGE_ROW_28_Right_28
*285 PHY_EDGE_ROW_29_Left_65
*286 PHY_EDGE_ROW_29_Right_29
*287 PHY_EDGE_ROW_2_Left_38
*288 PHY_EDGE_ROW_2_Right_2
*289 PHY_EDGE_ROW_30_Left_66
*290 PHY_EDGE_ROW_30_Right_30
*291 PHY_EDGE_ROW_31_Left_67
*292 PHY_EDGE_ROW_31_Right_31
*293 PHY_EDGE_ROW_32_Left_68
*294 PHY_EDGE_ROW_32_Right_32
*295 PHY_EDGE_ROW_33_Left_69
*296 PHY_EDGE_ROW_33_Right_33
*297 PHY_EDGE_ROW_34_Left_70
*298 PHY_EDGE_ROW_34_Right_34
*299 PHY_EDGE_ROW_35_Left_71
*300 PHY_EDGE_ROW_35_Right_35
*301 PHY_EDGE_ROW_3_Left_39
*302 PHY_EDGE_ROW_3_Right_3
*303 PHY_EDGE_ROW_4_Left_40
*304 PHY_EDGE_ROW_4_Right_4
*305 PHY_EDGE_ROW_5_Left_41
*306 PHY_EDGE_ROW_5_Right_5
*307 PHY_EDGE_ROW_6_Left_42
*308 PHY_EDGE_ROW_6_Right_6
*309 PHY_EDGE_ROW_7_Left_43
*310 PHY_EDGE_ROW_7_Right_7
*311 PHY_EDGE_ROW_8_Left_44
*312 PHY_EDGE_ROW_8_Right_8
*313 PHY_EDGE_ROW_9_Left_45
*314 PHY_EDGE_ROW_9_Right_9
*315 TAP_TAPCELL_ROW_0_72
*316 TAP_TAPCELL_ROW_10_77
*317 TAP_TAPCELL_ROW_12_78
*318 TAP_TAPCELL_ROW_14_79
*319 TAP_TAPCELL_ROW_16_80
*320 TAP_TAPCELL_ROW_18_81
*321 TAP_TAPCELL_ROW_20_82
*322 TAP_TAPCELL_ROW_22_83
*323 TAP_TAPCELL_ROW_24_84
*324 TAP_TAPCELL_ROW_26_85
*325 TAP_TAPCELL_ROW_28_86
*326 TAP_TAPCELL_ROW_2_73
*327 TAP_TAPCELL_ROW_30_87
*328 TAP_TAPCELL_ROW_32_88
*329 TAP_TAPCELL_ROW_34_89
*330 TAP_TAPCELL_ROW_35_90
*331 TAP_TAPCELL_ROW_4_74
*332 TAP_TAPCELL_ROW_6_75
*333 TAP_TAPCELL_ROW_8_76
*334 _31_
*335 _32_
*336 _33_
*337 _34_
*338 _35_
*339 _36_
*340 _37_
*341 _38_
*342 _39_
*343 _40_
*344 _41_
*345 _42_
*346 _43_
*347 _44_
*348 _45_
*349 _46_
*350 _47_
*351 _48_
*352 _49_
*353 _50_
*354 _51_
*355 _52_
*356 _53_
*357 _54_
*358 _55_
*359 _56_
*360 _57_
*361 _58_
*362 _59_
*363 _60_
*364 _61_
*365 _62_
*366 _63_
*367 _64_
*368 _65_
*369 _66_
*370 _67_
*371 _68_
*372 _69_
*373 _70_
*374 _71_
*375 _72_
*376 _73_
*377 _74_
*378 _75_
*379 _76_
*380 _77_
*381 _78_
*382 clkbuf_0_clk
*383 clkbuf_1_0__f_clk
*384 clkbuf_1_1__f_clk
*385 clkload0
*386 hold1
*387 hold10
*388 hold11
*389 hold12
*390 hold13
*391 hold14
*392 hold15
*393 hold16
*394 hold17
*395 hold2
*396 hold3
*397 hold4
*398 hold5
*399 hold6
*400 hold7
*401 hold8
*402 hold9
*403 input1
*404 output2
*405 output3
*406 output4
*407 output5
*408 output6
*409 output7
*410 output8
*411 output9

*PORTS
clk I
counter_out[0] O
counter_out[1] O
counter_out[2] O
counter_out[3] O
counter_out[4] O
counter_out[5] O
counter_out[6] O
counter_out[7] O
trigger I

*D_NET *3 0.0065898
*CONN
*P clk I
*I *382:A I *D sky130_fd_sc_hd__clkbuf_16
*CAP
1 clk 0.00234657
2 *382:A 0
3 *3:9 0.00234657
4 *3:9 *337:A1 0
5 *3:9 *368:CLK 0
6 *3:9 *14:8 0
7 *3:9 *17:8 9.63918e-05
8 *3:9 *33:10 0
9 *3:9 *34:29 0
10 *3:9 *34:42 0
11 *3:9 *44:12 0.00117762
12 *3:9 *44:21 8.33866e-05
13 *3:9 *45:10 0.000111852
14 *3:9 *45:34 0.000227047
15 *3:9 *45:94 0
16 *3:9 *47:38 0
17 *3:9 *47:49 0
18 *3:9 *47:60 0
19 *3:9 *47:73 0
20 *3:9 *48:8 5.09988e-05
21 *3:9 *49:22 0.000149351
*RES
1 clk *3:9 47.039 
2 *3:9 *382:A 38 
*END

*D_NET *4 0.00150728
*CONN
*P counter_out[0] O
*I *404:X O *D sky130_fd_sc_hd__buf_2
*CAP
1 counter_out[0] 0.000263236
2 *404:X 0.000450339
3 *4:8 0.000713575
4 *4:8 *66:14 8.013e-05
*RES
1 *404:X *4:8 45.7679 
2 *4:8 counter_out[0] 12.7391 
*END

*D_NET *5 0.00129848
*CONN
*P counter_out[1] O
*I *405:X O *D sky130_fd_sc_hd__buf_2
*CAP
1 counter_out[1] 0.000359134
2 *405:X 0.000200753
3 *5:10 0.000559887
4 *5:10 *66:14 0.000178705
*RES
1 *405:X *5:10 42.0082 
2 *5:10 counter_out[1] 9.22267 
*END

*D_NET *6 0.00117594
*CONN
*P counter_out[2] O
*I *406:X O *D sky130_fd_sc_hd__buf_2
*CAP
1 counter_out[2] 0.000184349
2 *406:X 0.000364117
3 *6:10 0.000548467
4 *6:10 *406:A 7.90102e-05
*RES
1 *406:X *6:10 44.1625 
2 *6:10 counter_out[2] 8.70747 
*END

*D_NET *7 0.00208319
*CONN
*P counter_out[3] O
*I *407:X O *D sky130_fd_sc_hd__buf_2
*CAP
1 counter_out[3] 0.000300165
2 *407:X 0.000545266
3 *7:10 0.000845432
4 *7:10 *407:A 0.000200709
5 *7:10 *43:16 0
6 *7:10 *76:10 0.000137594
7 *7:10 *76:14 5.40241e-05
*RES
1 *407:X *7:10 48.8854 
2 *7:10 counter_out[3] 9.1368 
*END

*D_NET *8 0.00111474
*CONN
*P counter_out[4] O
*I *408:X O *D sky130_fd_sc_hd__buf_2
*CAP
1 counter_out[4] 0.000550998
2 *408:X 0.000550998
3 counter_out[4] *43:14 1.27424e-05
*RES
1 *408:X counter_out[4] 47.8872 
*END

*D_NET *9 0.00101946
*CONN
*P counter_out[5] O
*I *409:X O *D sky130_fd_sc_hd__buf_2
*CAP
1 counter_out[5] 0.000509732
2 *409:X 0.000509732
*RES
1 *409:X counter_out[5] 49.118 
*END

*D_NET *10 0.00107346
*CONN
*P counter_out[6] O
*I *410:X O *D sky130_fd_sc_hd__buf_2
*CAP
1 counter_out[6] 0.000530329
2 *410:X 0.000530329
3 counter_out[6] *43:93 1.28019e-05
*RES
1 *410:X counter_out[6] 48.1535 
*END

*D_NET *11 0.00131504
*CONN
*P counter_out[7] O
*I *411:X O *D sky130_fd_sc_hd__buf_2
*CAP
1 counter_out[7] 0.000330537
2 *411:X 0.000326982
3 *11:10 0.000657519
*RES
1 *411:X *11:10 43.4168 
2 *11:10 counter_out[7] 9.22267 
*END

*D_NET *12 0.000862652
*CONN
*P trigger I
*I *403:A I *D sky130_fd_sc_hd__buf_1
*CAP
1 trigger 0.000431326
2 *403:A 0
3 *12:13 0.000431326
*RES
1 trigger *12:13 28.2736 
2 *12:13 *403:A 23 
*END

*D_NET *13 0.000740104
*CONN
*I *365:D I *D sky130_fd_sc_hd__dfxtp_1
*I *335:X O *D sky130_fd_sc_hd__and2b_1
*CAP
1 *365:D 5.85432e-05
2 *335:X 0.000226667
3 *13:8 0.00028521
4 *13:8 *337:A1 0
5 *13:8 *30:8 0
6 *13:8 *48:43 0.000169683
*RES
1 *335:X *13:8 42.3707 
2 *13:8 *365:D 38.9373 
*END

*D_NET *14 0.000445194
*CONN
*I *366:D I *D sky130_fd_sc_hd__dfxtp_1
*I *337:X O *D sky130_fd_sc_hd__o21a_1
*CAP
1 *366:D 0.000130787
2 *337:X 9.18104e-05
3 *14:8 0.000222597
4 *14:8 *45:30 0
5 *3:9 *14:8 0
*RES
1 *337:X *14:8 39.5536 
2 *14:8 *366:D 40.0973 
*END

*D_NET *15 0.000821773
*CONN
*I *367:D I *D sky130_fd_sc_hd__dfxtp_1
*I *340:X O *D sky130_fd_sc_hd__and3_1
*CAP
1 *367:D 0
2 *340:X 0.000399372
3 *15:8 0.000399372
4 *15:8 *49:6 2.30292e-05
*RES
1 *340:X *15:8 29.8823 
2 *15:8 *367:D 23 
*END

*D_NET *16 0.000377704
*CONN
*I *368:D I *D sky130_fd_sc_hd__dfxtp_1
*I *344:X O *D sky130_fd_sc_hd__and3_1
*CAP
1 *368:D 8.77079e-06
2 *344:X 8.43891e-05
3 *16:8 9.31599e-05
4 *368:D *343:A 1.74843e-05
5 *16:8 *368:CLK 4.21594e-06
6 *16:8 *34:29 0.000169683
7 *16:8 *35:8 0
*RES
1 *344:X *16:8 40.2579 
2 *16:8 *368:D 38.1916 
*END

*D_NET *17 0.000992608
*CONN
*I *369:D I *D sky130_fd_sc_hd__dfxtp_1
*I *346:Y O *D sky130_fd_sc_hd__a21oi_1
*CAP
1 *369:D 0.000168464
2 *346:Y 9.07674e-05
3 *17:8 0.000259231
4 *369:D *369:CLK 0.000314894
5 *17:8 *34:29 6.28591e-05
6 *3:9 *17:8 9.63918e-05
*RES
1 *346:Y *17:8 40.61 
2 *17:8 *369:D 41.5266 
*END

*D_NET *18 0.000902283
*CONN
*I *370:D I *D sky130_fd_sc_hd__dfxtp_1
*I *350:Y O *D sky130_fd_sc_hd__nor2_1
*CAP
1 *370:D 9.94787e-05
2 *350:Y 6.38083e-05
3 *18:8 0.000163287
4 *370:D *370:CLK 0.000187073
5 *18:8 *29:20 0.000194318
6 *18:8 *39:8 0.000194318
*RES
1 *350:Y *18:8 40.61 
2 *18:8 *370:D 40.0973 
*END

*D_NET *19 0.000304285
*CONN
*I *371:D I *D sky130_fd_sc_hd__dfxtp_1
*I *353:Y O *D sky130_fd_sc_hd__nor2_1
*CAP
1 *371:D 1.58638e-05
2 *353:Y 9.24742e-05
3 *19:8 0.000108338
4 *19:8 *363:A0 0
5 *19:8 *40:23 8.76088e-05
6 *19:8 *53:12 0
*RES
1 *353:Y *19:8 40.2579 
2 *19:8 *371:D 38.1916 
*END

*D_NET *20 0.000405168
*CONN
*I *372:D I *D sky130_fd_sc_hd__dfxtp_1
*I *355:X O *D sky130_fd_sc_hd__o21a_1
*CAP
1 *372:D 1.13183e-05
2 *355:X 0.000183048
3 *20:10 0.000194366
4 *372:D *372:CLK 1.64354e-05
*RES
1 *355:X *20:10 40.8793 
2 *20:10 *372:D 38.1916 
*END

*D_NET *21 0.000567602
*CONN
*I *373:D I *D sky130_fd_sc_hd__dfxtp_1
*I *357:X O *D sky130_fd_sc_hd__mux2_1
*CAP
1 *373:D 1.38132e-05
2 *357:X 0.000262942
3 *21:10 0.000276755
4 *373:D *358:S 4.9054e-06
5 *21:10 *357:A0 0
6 *21:10 *74:10 0
7 *21:10 *74:25 9.18684e-06
*RES
1 *357:X *21:10 41.8321 
2 *21:10 *373:D 38.1916 
*END

*D_NET *22 0.000661717
*CONN
*I *374:D I *D sky130_fd_sc_hd__dfxtp_1
*I *358:X O *D sky130_fd_sc_hd__mux2_1
*CAP
1 *374:D 1.01088e-05
2 *358:X 0.000257944
3 *22:10 0.000268053
4 *374:D *374:CLK 1.64354e-05
5 *22:10 *358:A0 5.37348e-06
6 *22:10 *373:CLK 9.8971e-06
7 *22:10 *374:CLK 9.39056e-05
*RES
1 *358:X *22:10 42.1843 
2 *22:10 *374:D 38.1916 
*END

*D_NET *23 0.00114435
*CONN
*I *395:A I *D sky130_fd_sc_hd__dlygate4sd3_1
*I *359:X O *D sky130_fd_sc_hd__mux2_1
*CAP
1 *395:A 0
2 *359:X 0.000428706
3 *23:10 0.000428706
4 *23:10 *29:56 7.03766e-05
5 *23:10 *47:49 0.00014411
6 *23:10 *49:53 7.24484e-05
*RES
1 *359:X *23:10 44.815 
2 *23:10 *395:A 38 
*END

*D_NET *24 0.00130533
*CONN
*I *397:A I *D sky130_fd_sc_hd__dlygate4sd3_1
*I *360:X O *D sky130_fd_sc_hd__mux2_1
*CAP
1 *397:A 0
2 *360:X 0.00042795
3 *24:10 0.00042795
4 *24:10 *341:A1 8.62783e-05
5 *24:10 *360:A0 0.00015414
6 *24:10 *34:10 0.000171253
7 *24:10 *50:10 4.21594e-06
8 *24:10 *50:16 3.3548e-05
*RES
1 *360:X *24:10 45.2914 
2 *24:10 *397:A 38 
*END

*D_NET *25 0.00174175
*CONN
*I *388:A I *D sky130_fd_sc_hd__dlygate4sd3_1
*I *361:X O *D sky130_fd_sc_hd__mux2_1
*CAP
1 *388:A 3.77142e-05
2 *361:X 0.000427721
3 *25:10 0.000465436
4 *25:10 *361:A0 0.000188713
5 *25:10 *361:A1 2.07026e-05
6 *25:10 *361:S 0.000100061
7 *25:10 *43:14 2.46345e-05
8 *25:10 *43:16 0.000439095
9 *25:10 *65:8 3.76761e-05
*RES
1 *361:X *25:10 48.5643 
2 *25:10 *388:A 38.6214 
*END

*D_NET *26 0.00131297
*CONN
*I *390:A I *D sky130_fd_sc_hd__dlygate4sd3_1
*I *362:X O *D sky130_fd_sc_hd__mux2_1
*CAP
1 *390:A 0.000202119
2 *362:X 0.000196485
3 *26:10 0.000398604
4 *26:10 *362:A0 5.50049e-05
5 *26:10 *43:12 0
6 *26:10 *46:12 2.54046e-05
7 *26:10 *46:49 7.1357e-05
8 *26:10 *53:26 6.48142e-05
9 *26:10 *69:8 0.000299178
*RES
1 *362:X *26:10 43.3443 
2 *26:10 *390:A 41.48 
*END

*D_NET *27 0.00132535
*CONN
*I *399:A I *D sky130_fd_sc_hd__dlygate4sd3_1
*I *363:X O *D sky130_fd_sc_hd__mux2_1
*CAP
1 *399:A 0
2 *363:X 0.000411746
3 *27:10 0.000411746
4 *27:10 *43:8 0.000275932
5 *27:10 *43:93 0
6 *27:10 *60:10 8.4047e-05
7 *27:10 *79:23 0.000141879
*RES
1 *363:X *27:10 45.7264 
2 *27:10 *399:A 38 
*END

*D_NET *28 0.000745416
*CONN
*I *401:A I *D sky130_fd_sc_hd__dlygate4sd3_1
*I *364:X O *D sky130_fd_sc_hd__mux2_1
*CAP
1 *401:A 0.000106728
2 *364:X 0.000240906
3 *28:10 0.000347635
4 *28:10 *364:A0 5.01469e-05
5 *28:10 *46:90 0
6 *28:10 *63:10 0
*RES
1 *364:X *28:10 41.8321 
2 *28:10 *401:A 39.5743 
*END

*D_NET *29 0.0121356
*CONN
*I *354:B1_N I *D sky130_fd_sc_hd__a21boi_1
*I *352:B1 I *D sky130_fd_sc_hd__o21ai_1
*I *349:A I *D sky130_fd_sc_hd__nand2_1
*I *340:A I *D sky130_fd_sc_hd__and3_1
*I *335:B I *D sky130_fd_sc_hd__and2b_1
*I *336:B1_N I *D sky130_fd_sc_hd__a21boi_1
*I *345:B1 I *D sky130_fd_sc_hd__o21ai_1
*I *344:A I *D sky130_fd_sc_hd__and3_1
*I *334:Y O *D sky130_fd_sc_hd__nand2b_2
*CAP
1 *354:B1_N 0.000356359
2 *352:B1 8.63644e-05
3 *349:A 0
4 *340:A 0
5 *335:B 4.49845e-05
6 *336:B1_N 9.73087e-05
7 *345:B1 0
8 *344:A 2.34823e-05
9 *334:Y 0
10 *29:56 0.000401662
11 *29:54 0.00100914
12 *29:43 0.000111673
13 *29:35 0.00107502
14 *29:26 0.00104284
15 *29:20 0.00126085
16 *29:10 0.00118338
17 *29:6 0.0009983
18 *336:B1_N *47:38 5.86165e-05
19 *336:B1_N *48:43 0.000139373
20 *352:B1 *38:20 0.000128401
21 *354:B1_N *40:23 0.000185428
22 *29:10 *334:A_N 0
23 *29:10 *334:B 0
24 *29:10 *356:A_N 0
25 *29:10 *38:20 6.25829e-05
26 *29:10 *40:23 0
27 *29:10 *46:60 0
28 *29:10 *46:71 0
29 *29:10 *55:10 0
30 *29:20 *38:8 0
31 *29:20 *38:20 0.000251727
32 *29:20 *39:8 9.27814e-05
33 *29:26 *344:C 8.24564e-05
34 *29:26 *34:29 0.000379413
35 *29:26 *34:42 0.000592563
36 *29:26 *34:46 0
37 *29:26 *38:8 0
38 *29:43 *369:CLK 5.3304e-05
39 *29:43 *377:CLK 3.3746e-05
40 *29:43 *36:10 2.64616e-05
41 *29:43 *44:12 8.16356e-05
42 *29:43 *51:14 8.72173e-05
43 *29:54 *341:A1 1.44813e-05
44 *29:54 *341:A2 0.000157082
45 *29:54 *342:C 0.000128583
46 *29:54 *345:A2 0.0003055
47 *29:54 *377:CLK 4.67488e-05
48 *29:54 *31:10 4.08537e-05
49 *29:54 *34:10 0.000397725
50 *29:54 *47:49 7.75329e-06
51 *29:54 *47:60 3.14481e-05
52 *29:54 *47:73 6.35704e-05
53 *29:54 *48:43 6.07611e-06
54 *29:54 *48:52 3.36638e-05
55 *29:54 *49:10 0.000192087
56 *29:54 *67:8 0
57 *29:56 *47:38 7.75329e-06
58 *29:56 *47:49 0.000164248
59 *29:56 *48:43 0.000326234
60 *18:8 *29:20 0.000194318
61 *23:10 *29:56 7.03766e-05
*RES
1 *334:Y *29:6 38 
2 *29:6 *29:10 27.1179 
3 *29:10 *29:20 25.4607 
4 *29:20 *29:26 33.3943 
5 *29:26 *344:A 23.4971 
6 *29:26 *29:35 2.52714 
7 *29:35 *29:43 32.8793 
8 *29:43 *345:B1 23 
9 *29:35 *29:54 32.69 
10 *29:54 *29:56 8.59643 
11 *29:56 *336:B1_N 40.8793 
12 *29:56 *335:B 38.6214 
13 *29:54 *340:A 38 
14 *29:20 *349:A 38 
15 *29:10 *352:B1 25.5271 
16 *29:6 *354:B1_N 44.815 
*END

*D_NET *30 0.00121496
*CONN
*I *337:B1 I *D sky130_fd_sc_hd__o21a_1
*I *336:Y O *D sky130_fd_sc_hd__a21boi_1
*CAP
1 *337:B1 0.00013048
2 *336:Y 8.85311e-05
3 *30:8 0.000219011
4 *337:B1 *337:A1 0.000221084
5 *337:B1 *337:A2 2.4754e-05
6 *337:B1 *365:CLK 0.000166079
7 *337:B1 *45:30 0.000226295
8 *30:8 *337:A1 0.000138727
9 *13:8 *30:8 0
*RES
1 *336:Y *30:8 39.9057 
2 *30:8 *337:B1 42.4329 
*END

*D_NET *31 0.000765887
*CONN
*I *340:B I *D sky130_fd_sc_hd__and3_1
*I *338:X O *D sky130_fd_sc_hd__a21o_1
*CAP
1 *340:B 0
2 *338:X 0.000217367
3 *31:10 0.000217367
4 *31:10 *338:A1 0.000183733
5 *31:10 *338:A2 2.02872e-05
6 *31:10 *47:60 8.62783e-05
7 *29:54 *31:10 4.08537e-05
*RES
1 *338:X *31:10 41.7286 
2 *31:10 *340:B 38 
*END

*D_NET *32 0.00030454
*CONN
*I *340:C I *D sky130_fd_sc_hd__and3_1
*I *339:Y O *D sky130_fd_sc_hd__nand3_1
*CAP
1 *340:C 0.000111448
2 *339:Y 0.000111448
3 *340:C *339:A 8.16439e-05
*RES
1 *339:Y *340:C 47.6571 
*END

*D_NET *33 0.000703615
*CONN
*I *344:B I *D sky130_fd_sc_hd__and3_1
*I *341:X O *D sky130_fd_sc_hd__a31o_1
*CAP
1 *344:B 0
2 *341:X 0.000224715
3 *33:10 0.000224715
4 *33:10 *368:CLK 0
5 *33:10 *376:CLK 5.67058e-05
6 *33:10 *34:29 0.000197479
7 *3:9 *33:10 0
*RES
1 *341:X *33:10 42.64 
2 *33:10 *344:B 38 
*END

*D_NET *34 0.00788237
*CONN
*I *345:A2 I *D sky130_fd_sc_hd__o21ai_1
*I *348:C I *D sky130_fd_sc_hd__and3_1
*I *351:D I *D sky130_fd_sc_hd__and4_1
*I *347:A2 I *D sky130_fd_sc_hd__a21o_1
*I *346:A2 I *D sky130_fd_sc_hd__a21oi_1
*I *343:A I *D sky130_fd_sc_hd__inv_2
*I *342:X O *D sky130_fd_sc_hd__and4_2
*CAP
1 *345:A2 0.000213924
2 *348:C 3.05179e-05
3 *351:D 0.000202464
4 *347:A2 0
5 *346:A2 0
6 *343:A 0.000185207
7 *342:X 0.000239869
8 *34:46 0.000296987
9 *34:42 0.000540091
10 *34:29 0.000739675
11 *34:16 0.000843657
12 *34:10 0.000787619
13 *345:A2 *377:CLK 0.000188926
14 *345:A2 *44:12 0
15 *345:A2 *46:18 1.01436e-05
16 *351:D *370:CLK 0.000228909
17 *351:D *38:8 0.000157299
18 *351:D *44:21 1.14452e-05
19 *351:D *46:49 4.34745e-05
20 *351:D *51:60 0
21 *351:D *52:8 6.32688e-05
22 *34:10 *341:A1 2.95125e-05
23 *34:10 *44:12 0
24 *34:10 *50:10 0
25 *34:10 *50:16 5.67058e-05
26 *34:16 *50:10 0.000183733
27 *34:29 *368:CLK 0
28 *34:29 *35:8 0
29 *34:42 *44:21 0
30 *34:42 *73:10 8.85189e-05
31 *34:46 *38:8 0.000168754
32 *34:46 *44:21 0.000277714
33 *368:D *343:A 1.74843e-05
34 *3:9 *34:29 0
35 *3:9 *34:42 0
36 *16:8 *34:29 0.000169683
37 *17:8 *34:29 6.28591e-05
38 *24:10 *34:10 0.000171253
39 *29:26 *34:29 0.000379413
40 *29:26 *34:42 0.000592563
41 *29:26 *34:46 0
42 *29:54 *345:A2 0.0003055
43 *29:54 *34:10 0.000397725
44 *33:10 *34:29 0.000197479
*RES
1 *342:X *34:10 44.0486 
2 *34:10 *34:16 20.8829 
3 *34:16 *343:A 26.0243 
4 *34:16 *34:29 24.3007 
5 *34:29 *346:A2 38 
6 *34:29 *34:42 25.4193 
7 *34:42 *34:46 18.6664 
8 *34:46 *347:A2 38 
9 *34:46 *351:D 43.2614 
10 *34:42 *348:C 23.4557 
11 *34:10 *345:A2 43.7793 
*END

*D_NET *35 0.000762068
*CONN
*I *344:C I *D sky130_fd_sc_hd__and3_1
*I *343:Y O *D sky130_fd_sc_hd__inv_2
*CAP
1 *344:C 0.000198152
2 *343:Y 0.000141654
3 *35:8 0.000339806
4 *16:8 *35:8 0
5 *29:26 *344:C 8.24564e-05
6 *34:29 *35:8 0
*RES
1 *343:Y *35:8 40.61 
2 *35:8 *344:C 41.3143 
*END

*D_NET *36 0.00105534
*CONN
*I *346:B1 I *D sky130_fd_sc_hd__a21oi_1
*I *345:Y O *D sky130_fd_sc_hd__o21ai_1
*CAP
1 *346:B1 0.000170753
2 *345:Y 0.000179126
3 *36:10 0.000349879
4 *346:B1 *44:8 2.38288e-05
5 *36:10 *369:CLK 1.21972e-05
6 *36:10 *44:12 4.08537e-05
7 *36:10 *44:21 6.01596e-05
8 *36:10 *51:14 0.000192077
9 *29:43 *36:10 2.64616e-05
*RES
1 *345:Y *36:10 41.7079 
2 *36:10 *346:B1 40.5271 
*END

*D_NET *37 0.000265373
*CONN
*I *349:B I *D sky130_fd_sc_hd__nand2_1
*I *347:X O *D sky130_fd_sc_hd__a21o_1
*CAP
1 *349:B 0.000132686
2 *347:X 0.000132686
3 *349:B *347:B1 0
*RES
1 *347:X *349:B 48.0714 
*END

*D_NET *38 0.00254445
*CONN
*I *350:A I *D sky130_fd_sc_hd__nor2_1
*I *352:A2 I *D sky130_fd_sc_hd__o21ai_1
*I *348:X O *D sky130_fd_sc_hd__and3_1
*CAP
1 *350:A 0
2 *352:A2 0
3 *348:X 0.000363506
4 *38:20 0.000397904
5 *38:12 0.000495986
6 *38:8 0.000461588
7 *38:8 *46:60 0
8 *38:20 *353:B 5.67058e-05
9 *38:20 *46:60 0
10 *351:D *38:8 0.000157299
11 *352:B1 *38:20 0.000128401
12 *29:10 *38:20 6.25829e-05
13 *29:20 *38:8 0
14 *29:20 *38:20 0.000251727
15 *29:26 *38:8 0
16 *34:46 *38:8 0.000168754
*RES
1 *348:X *38:8 45.8921 
2 *38:8 *38:12 16.5743 
3 *38:12 *38:20 37.6229 
4 *38:20 *352:A2 23 
5 *38:12 *350:A 23 
*END

*D_NET *39 0.000809067
*CONN
*I *350:B I *D sky130_fd_sc_hd__nor2_1
*I *349:Y O *D sky130_fd_sc_hd__nand2_1
*CAP
1 *350:B 4.70839e-05
2 *349:Y 0.0002139
3 *39:8 0.000260984
4 *18:8 *39:8 0.000194318
5 *29:20 *39:8 9.27814e-05
*RES
1 *349:Y *39:8 43.075 
2 *39:8 *350:B 38.6214 
*END

*D_NET *40 0.00371158
*CONN
*I *354:A2 I *D sky130_fd_sc_hd__a21boi_1
*I *355:A2 I *D sky130_fd_sc_hd__o21a_1
*I *353:A I *D sky130_fd_sc_hd__nor2_1
*I *351:X O *D sky130_fd_sc_hd__and4_1
*CAP
1 *354:A2 0
2 *355:A2 0
3 *353:A 0
4 *351:X 0.000274097
5 *40:29 0.000116931
6 *40:23 0.000827661
7 *40:10 0.000984827
8 *40:10 *370:CLK 1.94693e-05
9 *40:10 *46:49 1.94812e-05
10 *40:10 *46:60 0.000354778
11 *40:10 *53:26 0
12 *40:23 *334:B 0
13 *40:23 *356:A_N 0
14 *40:23 *363:A0 0
15 *40:23 *46:60 0.000240695
16 *40:23 *46:71 0.000459657
17 *40:23 *46:90 0
18 *40:23 *53:12 0
19 *40:23 *53:26 0
20 *40:29 *46:90 0
21 *40:29 *71:12 0.000140949
22 *354:B1_N *40:23 0.000185428
23 *19:8 *40:23 8.76088e-05
24 *29:10 *40:23 0
*RES
1 *351:X *40:10 43.8207 
2 *40:10 *353:A 38 
3 *40:10 *40:23 31.6336 
4 *40:23 *40:29 32.61 
5 *40:29 *355:A2 23 
6 *40:23 *354:A2 23 
*END

*D_NET *41 0.00046151
*CONN
*I *353:B I *D sky130_fd_sc_hd__nor2_1
*I *352:Y O *D sky130_fd_sc_hd__o21ai_1
*CAP
1 *353:B 0.000175734
2 *352:Y 0.000175734
3 *353:B *72:8 5.33367e-05
4 *38:20 *353:B 5.67058e-05
*RES
1 *352:Y *353:B 49.3764 
*END

*D_NET *42 0.000667913
*CONN
*I *355:B1 I *D sky130_fd_sc_hd__o21a_1
*I *354:Y O *D sky130_fd_sc_hd__a21boi_1
*CAP
1 *355:B1 0.000218094
2 *354:Y 5.94923e-05
3 *42:8 0.000277587
4 *355:B1 *71:6 2.64616e-05
5 *42:8 *46:90 0
6 *42:8 *71:12 8.62783e-05
*RES
1 *354:Y *42:8 39.2014 
2 *42:8 *355:B1 40.9 
*END

*D_NET *43 0.0145921
*CONN
*I *364:S I *D sky130_fd_sc_hd__mux2_1
*I *363:S I *D sky130_fd_sc_hd__mux2_1
*I *362:S I *D sky130_fd_sc_hd__mux2_1
*I *361:S I *D sky130_fd_sc_hd__mux2_1
*I *360:S I *D sky130_fd_sc_hd__mux2_1
*I *359:S I *D sky130_fd_sc_hd__mux2_1
*I *358:S I *D sky130_fd_sc_hd__mux2_1
*I *357:S I *D sky130_fd_sc_hd__mux2_1
*I *356:Y O *D sky130_fd_sc_hd__nand2b_4
*CAP
1 *364:S 0
2 *363:S 0
3 *362:S 0
4 *361:S 8.57273e-05
5 *360:S 0
6 *359:S 6.68116e-05
7 *358:S 0.000653038
8 *357:S 7.94441e-05
9 *356:Y 0.00055472
10 *43:93 0.000961633
11 *43:78 0.00100394
12 *43:24 0.00143415
13 *43:18 0.00126728
14 *43:16 0.00110239
15 *43:14 0.00095965
16 *43:12 0.00099569
17 *43:8 0.00132239
18 *357:S *70:10 0.000141869
19 *358:S *373:CLK 3.87132e-05
20 *359:S *359:A1 5.56279e-05
21 *361:S *361:A1 3.7122e-06
22 *43:8 *356:A_N 9.62666e-05
23 *43:8 *363:A0 5.56502e-05
24 *43:12 *53:26 0
25 *43:12 *60:10 1.14452e-05
26 *43:12 *78:25 0.000847855
27 *43:14 *78:10 8.62783e-05
28 *43:14 *78:25 8.24662e-05
29 *43:16 *408:A 0.000216051
30 *43:16 *58:10 0.000346476
31 *43:16 *67:8 0
32 *43:16 *76:10 0
33 *43:16 *77:10 0.000360161
34 *43:18 *386:A 0
35 *43:18 *406:A 0
36 *43:18 *56:10 0.000345555
37 *43:18 *58:10 6.48142e-05
38 *43:24 *357:A0 0.000107538
39 *43:24 *406:A 0
40 *43:24 *47:23 0.000126936
41 *43:24 *56:10 3.47781e-05
42 *43:24 *70:10 0.00021289
43 *43:93 *60:10 0
44 *43:93 *62:10 0
45 counter_out[4] *43:14 1.27424e-05
46 counter_out[6] *43:93 1.28019e-05
47 *373:D *358:S 4.9054e-06
48 *7:10 *43:16 0
49 *25:10 *361:S 0.000100061
50 *25:10 *43:14 2.46345e-05
51 *25:10 *43:16 0.000439095
52 *26:10 *43:12 0
53 *27:10 *43:8 0.000275932
54 *27:10 *43:93 0
*RES
1 *356:Y *43:8 34.1236 
2 *43:8 *43:12 32.0479 
3 *43:12 *43:14 5.77929 
4 *43:14 *43:16 17.0479 
5 *43:16 *43:18 11.4136 
6 *43:18 *43:24 16.0536 
7 *43:24 *357:S 39.9057 
8 *43:24 *358:S 46.1407 
9 *43:18 *359:S 39.0979 
10 *43:16 *360:S 38 
11 *43:14 *361:S 39.5743 
12 *43:12 *362:S 38 
13 *43:8 *43:78 0.621429 
14 *43:78 *363:S 23 
15 *43:78 *43:93 46.9443 
16 *43:93 *364:S 23 
*END

*D_NET *44 0.0056157
*CONN
*I *384:A I *D sky130_fd_sc_hd__clkbuf_16
*I *383:A I *D sky130_fd_sc_hd__clkbuf_16
*I *382:X O *D sky130_fd_sc_hd__clkbuf_16
*CAP
1 *384:A 0
2 *383:A 0
3 *382:X 0.000508541
4 *44:21 0.000439199
5 *44:12 0.00050352
6 *44:8 0.00145126
7 *44:12 *341:A1 6.02277e-06
8 *44:12 *377:CLK 0
9 *44:12 *47:73 4.48568e-05
10 *44:12 *50:10 0.000154138
11 *44:12 *50:16 0.000224336
12 *44:12 *51:14 1.62615e-05
13 *44:21 *51:14 9.03476e-05
14 *44:21 *51:34 0.000190102
15 *44:21 *51:45 3.61397e-05
16 *44:21 *52:8 2.68751e-05
17 *44:21 *52:12 0.000167452
18 *44:21 *73:10 0
19 *345:A2 *44:12 0
20 *346:B1 *44:8 2.38288e-05
21 *351:D *44:21 1.14452e-05
22 *3:9 *44:12 0.00117762
23 *3:9 *44:21 8.33866e-05
24 *29:43 *44:12 8.16356e-05
25 *34:10 *44:12 0
26 *34:42 *44:21 0
27 *34:46 *44:21 0.000277714
28 *36:10 *44:12 4.08537e-05
29 *36:10 *44:21 6.01596e-05
*RES
1 *382:X *44:8 44.3386 
2 *44:8 *44:12 30.6393 
3 *44:12 *383:A 23 
4 *44:8 *44:21 27.47 
5 *44:21 *384:A 23 
*END

*D_NET *45 0.0131695
*CONN
*I *385:A I *D sky130_fd_sc_hd__clkbuf_4
*I *368:CLK I *D sky130_fd_sc_hd__dfxtp_1
*I *376:CLK I *D sky130_fd_sc_hd__dfxtp_1
*I *367:CLK I *D sky130_fd_sc_hd__dfxtp_1
*I *375:CLK I *D sky130_fd_sc_hd__dfxtp_1
*I *366:CLK I *D sky130_fd_sc_hd__dfxtp_1
*I *365:CLK I *D sky130_fd_sc_hd__dfxtp_1
*I *373:CLK I *D sky130_fd_sc_hd__dfxtp_1
*I *374:CLK I *D sky130_fd_sc_hd__dfxtp_1
*I *383:X O *D sky130_fd_sc_hd__clkbuf_16
*CAP
1 *385:A 0
2 *368:CLK 0.000152418
3 *376:CLK 0.000696529
4 *367:CLK 0
5 *375:CLK 0
6 *366:CLK 0
7 *365:CLK 0.000256204
8 *373:CLK 0.000264008
9 *374:CLK 0.000386107
10 *383:X 0.000627105
11 *45:94 0.00105678
12 *45:78 0.000719389
13 *45:34 0.00084095
14 *45:30 0.000962463
15 *45:24 0.000959687
16 *45:22 0.00130528
17 *45:20 0.000557106
18 *45:14 0.000875655
19 *45:12 0.00025234
20 *45:10 0.000627105
21 *373:CLK *358:A0 0.000185434
22 *373:CLK *358:A1 0.000143655
23 *374:CLK *358:A0 3.70094e-05
24 *374:CLK *74:10 0
25 *376:CLK *341:A2 0.000402094
26 *376:CLK *376:D 5.67058e-05
27 *376:CLK *49:22 2.93845e-05
28 *45:10 *338:A2 1.21972e-05
29 *45:10 *49:14 0.000214026
30 *45:10 *49:22 0.000114083
31 *45:34 *358:A0 0.000355708
32 *45:34 *48:8 7.39034e-05
33 *45:78 *375:D 5.50106e-05
34 *45:94 *49:22 0
35 *337:B1 *365:CLK 0.000166079
36 *337:B1 *45:30 0.000226295
37 *358:S *373:CLK 3.87132e-05
38 *374:D *374:CLK 1.64354e-05
39 *3:9 *368:CLK 0
40 *3:9 *45:10 0.000111852
41 *3:9 *45:34 0.000227047
42 *3:9 *45:94 0
43 *14:8 *45:30 0
44 *16:8 *368:CLK 4.21594e-06
45 *22:10 *373:CLK 9.8971e-06
46 *22:10 *374:CLK 9.39056e-05
47 *33:10 *368:CLK 0
48 *33:10 *376:CLK 5.67058e-05
49 *34:29 *368:CLK 0
*RES
1 *383:X *45:10 47.3214 
2 *45:10 *45:12 15 
3 *45:12 *45:14 3.95643 
4 *45:14 *45:20 22.4779 
5 *45:20 *45:22 2.61 
6 *45:22 *45:24 8.59643 
7 *45:24 *45:30 24.425 
8 *45:30 *45:34 20.7793 
9 *45:34 *374:CLK 45.0429 
10 *45:34 *373:CLK 43.8829 
11 *45:30 *365:CLK 27.4536 
12 *45:24 *366:CLK 38 
13 *45:22 *45:78 27.0557 
14 *45:78 *375:CLK 23 
15 *45:20 *367:CLK 38 
16 *45:14 *45:94 19.0186 
17 *45:94 *376:CLK 49.7864 
18 *45:94 *368:CLK 40.2579 
19 *45:12 *385:A 23 
*END

*D_NET *46 0.0133409
*CONN
*I *379:CLK I *D sky130_fd_sc_hd__dfxtp_1
*I *372:CLK I *D sky130_fd_sc_hd__dfxtp_1
*I *380:CLK I *D sky130_fd_sc_hd__dfxtp_1
*I *381:CLK I *D sky130_fd_sc_hd__dfxtp_1
*I *371:CLK I *D sky130_fd_sc_hd__dfxtp_1
*I *370:CLK I *D sky130_fd_sc_hd__dfxtp_1
*I *378:CLK I *D sky130_fd_sc_hd__dfxtp_1
*I *369:CLK I *D sky130_fd_sc_hd__dfxtp_1
*I *377:CLK I *D sky130_fd_sc_hd__dfxtp_1
*I *384:X O *D sky130_fd_sc_hd__clkbuf_16
*CAP
1 *379:CLK 0
2 *372:CLK 0.00051397
3 *380:CLK 0
4 *381:CLK 0.000574059
5 *371:CLK 0
6 *370:CLK 0.000418242
7 *378:CLK 0
8 *369:CLK 0.000431974
9 *377:CLK 0.00027002
10 *384:X 0.00013386
11 *46:90 0.00109099
12 *46:84 0.000763128
13 *46:71 0.00095406
14 *46:60 0.000579655
15 *46:49 0.0010776
16 *46:18 0.0012532
17 *46:12 0.000832668
18 *46:8 0.000688919
19 *369:CLK *345:A1 2.64616e-05