*SPEF "ieee 1481-1999"
*DESIGN "dig"
*DATE "21:47:13 Thursday April 10, 2025"
*VENDOR "The OpenROAD Project"
*PROGRAM "OpenROAD"
*VERSION "edf00dff99f6c40d67a30c0e22a8191c5d2ed9d6"
*DESIGN_FLOW "NAME_SCOPE LOCAL" "PIN_CAP NONE"
*DIVIDER /
*DELIMITER :
*BUS_DELIMITER []
*T_UNIT 1 NS
*C_UNIT 1 PF
*R_UNIT 1 OHM
*L_UNIT 1 HENRY

*NAME_MAP
*3 clk
*4 counter_out[0]
*5 counter_out[1]
*6 counter_out[2]
*7 counter_out[3]
*8 counter_out[4]
*9 counter_out[5]
*10 counter_out[6]
*11 counter_out[7]
*12 trigger
*13 _00_
*14 _01_
*15 _02_
*16 _03_
*17 _04_
*18 _05_
*19 _06_
*20 _07_
*21 _08_
*22 _09_
*23 _10_
*24 _11_
*25 _12_
*26 _13_
*27 _14_
*28 _15_
*29 _16_
*30 _17_
*31 _18_
*32 _19_
*33 _20_
*34 _21_
*35 _22_
*36 _23_
*37 _24_
*38 _25_
*39 _26_
*40 _27_
*41 _28_
*42 _29_
*43 _30_
*44 clknet_0_clk
*45 clknet_1_0__leaf_clk
*46 clknet_1_1__leaf_clk
*47 counter\[0\]
*48 counter\[1\]
*49 counter\[2\]
*50 counter\[3\]
*51 counter\[4\]
*52 counter\[5\]
*53 counter\[6\]
*54 counter\[7\]
*55 net1
*56 net10
*57 net11
*58 net12
*59 net13
*60 net14
*61 net15
*62 net16
*63 net17
*64 net18
*65 net19
*66 net2
*67 net20
*68 net21
*69 net22
*70 net23
*71 net24
*72 net25
*73 net26
*74 net27
*75 net28
*76 net3
*77 net4
*78 net5
*79 net6
*80 net7
*81 net8
*82 net9
*83 trigger_prev
*84 FILLER_0_11
*85 FILLER_0_29
*86 FILLER_0_3
*87 FILLER_0_53
*88 FILLER_0_57
*89 FILLER_0_69
*90 FILLER_10_29
*91 FILLER_10_3
*92 FILLER_11_11
*93 FILLER_11_3
*94 FILLER_11_39
*95 FILLER_11_57
*96 FILLER_12_14
*97 FILLER_12_29
*98 FILLER_12_57
*99 FILLER_12_6
*100 FILLER_12_73
*101 FILLER_1_11
*102 FILLER_1_3
*103 FILLER_1_73
*104 FILLER_2_11
*105 FILLER_2_29
*106 FILLER_2_3
*107 FILLER_2_52
*108 FILLER_2_69
*109 FILLER_3_11
*110 FILLER_3_3
*111 FILLER_3_30
*112 FILLER_3_73
*113 FILLER_4_11
*114 FILLER_4_3
*115 FILLER_4_49
*116 FILLER_4_70
*117 FILLER_5_11
*118 FILLER_5_28
*119 FILLER_5_3
*120 FILLER_5_47
*121 FILLER_5_74
*122 FILLER_6_11
*123 FILLER_6_19
*124 FILLER_6_29
*125 FILLER_6_3
*126 FILLER_6_52
*127 FILLER_6_70
*128 FILLER_7_11
*129 FILLER_7_3
*130 FILLER_7_39
*131 FILLER_7_73
*132 FILLER_8_29
*133 FILLER_8_3
*134 FILLER_8_49
*135 FILLER_8_7
*136 FILLER_9_11
*137 FILLER_9_3
*138 FILLER_9_73
*139 PHY_EDGE_ROW_0_Left_13
*140 PHY_EDGE_ROW_0_Right_0
*141 PHY_EDGE_ROW_10_Left_23
*142 PHY_EDGE_ROW_10_Right_10
*143 PHY_EDGE_ROW_11_Left_24
*144 PHY_EDGE_ROW_11_Right_11
*145 PHY_EDGE_ROW_12_Left_25
*146 PHY_EDGE_ROW_12_Right_12
*147 PHY_EDGE_ROW_1_Left_14
*148 PHY_EDGE_ROW_1_Right_1
*149 PHY_EDGE_ROW_2_Left_15
*150 PHY_EDGE_ROW_2_Right_2
*151 PHY_EDGE_ROW_3_Left_16
*152 PHY_EDGE_ROW_3_Right_3
*153 PHY_EDGE_ROW_4_Left_17
*154 PHY_EDGE_ROW_4_Right_4
*155 PHY_EDGE_ROW_5_Left_18
*156 PHY_EDGE_ROW_5_Right_5
*157 PHY_EDGE_ROW_6_Left_19
*158 PHY_EDGE_ROW_6_Right_6
*159 PHY_EDGE_ROW_7_Left_20
*160 PHY_EDGE_ROW_7_Right_7
*161 PHY_EDGE_ROW_8_Left_21
*162 PHY_EDGE_ROW_8_Right_8
*163 PHY_EDGE_ROW_9_Left_22
*164 PHY_EDGE_ROW_9_Right_9
*165 TAP_TAPCELL_ROW_0_26
*166 TAP_TAPCELL_ROW_0_27
*167 TAP_TAPCELL_ROW_10_37
*168 TAP_TAPCELL_ROW_11_38
*169 TAP_TAPCELL_ROW_12_39
*170 TAP_TAPCELL_ROW_12_40
*171 TAP_TAPCELL_ROW_1_28
*172 TAP_TAPCELL_ROW_2_29
*173 TAP_TAPCELL_ROW_3_30
*174 TAP_TAPCELL_ROW_4_31
*175 TAP_TAPCELL_ROW_5_32
*176 TAP_TAPCELL_ROW_6_33
*177 TAP_TAPCELL_ROW_7_34
*178 TAP_TAPCELL_ROW_8_35
*179 TAP_TAPCELL_ROW_9_36
*180 _31_
*181 _32_
*182 _33_
*183 _34_
*184 _35_
*185 _36_
*186 _37_
*187 _38_
*188 _39_
*189 _40_
*190 _41_
*191 _42_
*192 _43_
*193 _44_
*194 _45_
*195 _46_
*196 _47_
*197 _48_
*198 _49_
*199 _50_
*200 _51_
*201 _52_
*202 _53_
*203 _54_
*204 _55_
*205 _56_
*206 _57_
*207 _58_
*208 _59_
*209 _60_
*210 _61_
*211 _62_
*212 _63_
*213 _64_
*214 _65_
*215 _66_
*216 _67_
*217 _68_
*218 _69_
*219 _70_
*220 _71_
*221 _72_
*222 _73_
*223 _74_
*224 _75_
*225 _76_
*226 _77_
*227 _78_
*228 clkbuf_0_clk
*229 clkbuf_1_0__f_clk
*230 clkbuf_1_1__f_clk
*231 clkload0
*232 hold1
*233 hold10
*234 hold11
*235 hold12
*236 hold13
*237 hold14
*238 hold15
*239 hold16
*240 hold17
*241 hold18
*242 hold19
*243 hold2
*244 hold3
*245 hold4
*246 hold5
*247 hold6
*248 hold7
*249 hold8
*250 hold9
*251 input1
*252 output2
*253 output3
*254 output4
*255 output5
*256 output6
*257 output7
*258 output8
*259 output9

*PORTS
clk I
counter_out[0] O
counter_out[1] O
counter_out[2] O
counter_out[3] O
counter_out[4] O
counter_out[5] O
counter_out[6] O
counter_out[7] O
trigger I

*D_NET *3 0.00372705
*CONN
*P clk I
*I *228:A I *D sky130_fd_sc_hd__clkbuf_16
*CAP
1 clk 0.00152841
2 *228:A 0.00152841
3 *228:A *184:B1 0
4 *228:A *186:C 9.41173e-05
5 *228:A *187:A1 0.00013521
6 *228:A *193:A1 2.97004e-06
7 *228:A *214:CLK 0.000159535
8 *228:A *214:D 0.000139245
9 *228:A *233:A 4.67041e-05
10 *228:A *47:33 6.10392e-05
11 *228:A *47:106 3.14025e-05
12 *228:A *48:75 0
*RES
1 clk *228:A 16.9915 
*END

*D_NET *4 0.00417757
*CONN
*P counter_out[0] O
*I *252:X O *D sky130_fd_sc_hd__buf_2
*CAP
1 counter_out[0] 0.00208879
2 *252:X 0.00208879
3 counter_out[0] counter_out[1] 0
*RES
1 *252:X counter_out[0] 29.6327 
*END

*D_NET *5 0.00334828
*CONN
*P counter_out[1] O
*I *253:X O *D sky130_fd_sc_hd__buf_2
*CAP
1 counter_out[1] 0.000910864
2 *253:X 0.000910864
3 counter_out[1] counter_out[2] 0.000332374
4 counter_out[1] counter_out[3] 0.000273001
5 counter_out[1] *222:CLK 8.57024e-05
6 counter_out[1] *222:D 7.99391e-05
7 counter_out[1] *243:A 0.000169125
8 counter_out[1] *254:A 0.00031916
9 counter_out[1] *255:A 8.35126e-05
10 counter_out[1] *77:10 0.000183738
11 counter_out[0] counter_out[1] 0
*RES
1 *253:X counter_out[1] 20.7433 
*END

*D_NET *6 0.00105907
*CONN
*P counter_out[2] O
*I *254:X O *D sky130_fd_sc_hd__buf_2
*CAP
1 counter_out[2] 0.000363347
2 *254:X 0.000363347
3 counter_out[2] counter_out[3] 0
4 counter_out[1] counter_out[2] 0.000332374
*RES
1 *254:X counter_out[2] 8.47503 
*END

*D_NET *7 0.00122474
*CONN
*P counter_out[3] O
*I *255:X O *D sky130_fd_sc_hd__buf_2
*CAP
1 counter_out[3] 0.000409308
2 *255:X 0.000409308
3 counter_out[3] counter_out[4] 5.89925e-05
4 counter_out[3] *255:A 0
5 counter_out[3] *256:A 7.41259e-05
6 counter_out[1] counter_out[3] 0.000273001
7 counter_out[2] counter_out[3] 0
*RES
1 *255:X counter_out[3] 9.49503 
*END

*D_NET *8 0.00132738
*CONN
*P counter_out[4] O
*I *256:X O *D sky130_fd_sc_hd__buf_2
*CAP
1 counter_out[4] 0.000496155
2 *256:X 0.000496155
3 counter_out[4] counter_out[5] 0.000154806
4 counter_out[4] *256:A 0.00012127
5 counter_out[3] counter_out[4] 5.89925e-05
*RES
1 *256:X counter_out[4] 10.9068 
*END

*D_NET *9 0.00141577
*CONN
*P counter_out[5] O
*I *257:X O *D sky130_fd_sc_hd__buf_2
*CAP
1 counter_out[5] 0.000588218
2 *257:X 0.000588218
3 counter_out[5] counter_out[6] 0
4 counter_out[5] *207:A0 7.21296e-06
5 counter_out[5] *207:A1 3.86607e-05
6 counter_out[5] *246:A 0
7 counter_out[5] *256:A 3.86529e-05
8 counter_out[5] *43:32 0
9 counter_out[5] *43:38 0
10 counter_out[5] *82:12 0
11 counter_out[4] counter_out[5] 0.000154806
*RES
1 *257:X counter_out[5] 11.535 
*END

*D_NET *10 0.00468309
*CONN
*P counter_out[6] O
*I *258:X O *D sky130_fd_sc_hd__buf_2
*CAP
1 counter_out[6] 0.00161301
2 *258:X 0.00161301
3 counter_out[6] counter_out[7] 0
4 counter_out[6] *200:A1 0.000504864
5 counter_out[6] *200:B1_N 5.07419e-05
6 counter_out[6] *201:B1 7.68414e-06
7 counter_out[6] *249:A 0.000846429
8 counter_out[6] *55:14 1.4389e-05
9 counter_out[6] *71:18 3.29573e-05
10 counter_out[5] counter_out[6] 0
*RES
1 *258:X counter_out[6] 21.0277 
*END

*D_NET *11 0.00104618
*CONN
*P counter_out[7] O
*I *259:X O *D sky130_fd_sc_hd__buf_2
*CAP
1 counter_out[7] 0.000523089
2 *259:X 0.000523089
3 counter_out[6] counter_out[7] 0
*RES
1 *259:X counter_out[7] 9.61157 
*END

*D_NET *12 0.000650278
*CONN
*P trigger I
*I *251:A I *D sky130_fd_sc_hd__buf_1
*CAP
1 trigger 0.000325139
2 *251:A 0.000325139
*RES
1 trigger *251:A 7.8543 
*END

*D_NET *13 0.000687206
*CONN
*I *211:D I *D sky130_fd_sc_hd__dfxtp_1
*I *181:X O *D sky130_fd_sc_hd__and2b_1
*CAP
1 *211:D 0.000220282
2 *181:X 0.000220282
3 *211:D *211:CLK 3.05295e-05
4 *211:D *212:CLK 6.36578e-05
5 *211:D *29:28 0.000136909
6 *211:D *45:27 1.55468e-05
*RES
1 *181:X *211:D 12.0787 
*END

*D_NET *14 0.00082141
*CONN
*I *212:D I *D sky130_fd_sc_hd__dfxtp_1
*I *183:X O *D sky130_fd_sc_hd__o21a_1
*CAP
1 *212:D 0.000298073
2 *183:X 0.000298073
3 *212:D *183:B1 8.53255e-05
4 *212:D *29:26 0
5 *212:D *29:28 0
6 *212:D *48:27 0.00013994
*RES
1 *183:X *212:D 12.4838 
*END

*D_NET *15 0.00113659
*CONN
*I *213:D I *D sky130_fd_sc_hd__dfxtp_1
*I *186:X O *D sky130_fd_sc_hd__and3_1
*CAP
1 *213:D 0.000229865
2 *186:X 0.000229865
3 *213:D *186:B 4.82863e-05
4 *213:D *186:C 0.000286356
5 *213:D *252:A 0
6 *213:D *45:16 0.00011085
7 *213:D *45:27 1.90762e-05
8 *213:D *47:10 0.000162325
9 *213:D *48:37 4.99619e-05
*RES
1 *186:X *213:D 12.7837 
*END

*D_NET *16 0.00154537
*CONN
*I *214:D I *D sky130_fd_sc_hd__dfxtp_1
*I *190:X O *D sky130_fd_sc_hd__and3_1
*CAP
1 *214:D 0.000315868
2 *190:X 0.000315868
3 *214:D *183:A1 0.000159747
4 *214:D *183:A2 4.82863e-05
5 *214:D *185:C 0.000152159
6 *214:D *190:B 0.00020136
7 *214:D *214:CLK 0.000114427
8 *214:D *243:A 9.10017e-06
9 *214:D *47:106 7.4027e-05
10 *214:D *48:75 1.52862e-05
11 *228:A *214:D 0.000139245
*RES
1 *190:X *214:D 14.505 
*END

*D_NET *17 0.000485378
*CONN
*I *240:A I *D sky130_fd_sc_hd__dlygate4sd3_1
*I *192:Y O *D sky130_fd_sc_hd__a21oi_1
*CAP
1 *240:A 0.000116356
2 *192:Y 0.000116356
3 *240:A *191:A2 2.75229e-05
4 *240:A *192:A1 1.65192e-05
5 *240:A *192:B1 9.5433e-05
6 *240:A *29:22 0.000113191
7 *240:A *34:68 0
*RES
1 *192:Y *240:A 10.05 
*END

*D_NET *18 0.000840907
*CONN
*I *216:D I *D sky130_fd_sc_hd__dfxtp_1
*I *196:Y O *D sky130_fd_sc_hd__nor2_1
*CAP
1 *216:D 0.000137197
2 *196:Y 0.000137197
3 *216:D *196:A 1.40133e-05
4 *216:D *196:B 0.000314452
5 *216:D *216:CLK 1.43717e-05
6 *216:D *227:CLK 0.000137578
7 *216:D *55:18 8.6099e-05
*RES
1 *196:Y *216:D 11.4637 
*END

*D_NET *19 0.00180368
*CONN
*I *217:D I *D sky130_fd_sc_hd__dfxtp_1
*I *199:Y O *D sky130_fd_sc_hd__nor2_1
*CAP
1 *217:D 0.000318287
2 *199:Y 0.000318287
3 *217:D *180:B 5.16348e-05
4 *217:D *196:B 1.33285e-05
5 *217:D *197:A 0.000395885
6 *217:D *202:A_N 0.000120645
7 *217:D *217:CLK 4.66108e-05
8 *217:D *29:14 0.000170323
9 *217:D *38:10 5.58982e-05
10 *217:D *40:6 2.61299e-05
11 *217:D *43:6 0.000122337
12 *217:D *46:33 6.17724e-05
13 *217:D *51:21 2.92496e-05
14 *217:D *51:25 4.66108e-05
15 *217:D *52:10 2.66765e-05
*RES
1 *199:Y *217:D 16.2787 
*END

*D_NET *20 0.00141402
*CONN
*I *218:D I *D sky130_fd_sc_hd__dfxtp_1
*I *201:X O *D sky130_fd_sc_hd__o21a_1
*CAP
1 *218:D 0.000468441
2 *201:X 0.000468441
3 *218:D *197:A 0.000158297
4 *218:D *197:B 2.17353e-05
5 *218:D *198:A1 0
6 *218:D *201:A2 2.83579e-05
7 *218:D *201:B1 8.64421e-05
8 *218:D *208:A0 4.935e-05
9 *218:D *230:A 0.000118527
10 *218:D *38:10 0
11 *218:D *53:12 0
12 *218:D *53:25 1.44259e-05
13 *218:D *71:18 0
*RES
1 *201:X *218:D 15.4087 
*END

*D_NET *21 0.000250248
*CONN
*I *219:D I *D sky130_fd_sc_hd__dfxtp_1
*I *203:X O *D sky130_fd_sc_hd__mux2_1
*CAP
1 *219:D 0.000115527
2 *203:X 0.000115527
3 *219:D *203:A1 4.82319e-06
4 *219:D *43:44 0
5 *219:D *43:48 0
6 *219:D *66:20 1.43717e-05
*RES
1 *203:X *219:D 8.97375 
*END

*D_NET *22 0.00091833
*CONN
*I *220:D I *D sky130_fd_sc_hd__dfxtp_1
*I *204:X O *D sky130_fd_sc_hd__mux2_1
*CAP
1 *220:D 0.000203345
2 *204:X 0.000203345
3 *220:D *219:CLK 3.57349e-05
4 *220:D *233:A 0.000145159
5 *220:D *237:A 0
6 *220:D *43:44 0.000147397
7 *220:D *43:48 0.000116158
8 *220:D *45:67 4.66108e-05
9 *220:D *76:8 2.05788e-05
*RES
1 *204:X *220:D 11.7338 
*END

*D_NET *23 0.000670793
*CONN
*I *234:A I *D sky130_fd_sc_hd__dlygate4sd3_1
*I *205:X O *D sky130_fd_sc_hd__mux2_1
*CAP
1 *234:A 6.65393e-05
2 *205:X 6.65393e-05
3 *234:A *203:A1 0.000272389
4 *234:A *66:20 0.000265326
*RES
1 *205:X *234:A 6.08 
*END

*D_NET *24 0.000646525
*CONN
*I *244:A I *D sky130_fd_sc_hd__dlygate4sd3_1
*I *206:X O *D sky130_fd_sc_hd__mux2_1
*CAP
1 *244:A 0.000117619
2 *206:X 0.000117619
3 *244:A *206:A0 5.17188e-05
4 *244:A *206:A1 0.000198934
5 *244:A *43:44 0.000160635
*RES
1 *206:X *244:A 6.425 
*END

*D_NET *25 0.00122887
*CONN
*I *246:A I *D sky130_fd_sc_hd__dlygate4sd3_1
*I *207:X O *D sky130_fd_sc_hd__mux2_1
*CAP
1 *246:A 0.000398401
2 *207:X 0.000398401
3 *246:A *207:A0 9.14049e-05
4 *246:A *207:S 5.07419e-05
5 *246:A *223:D 0.000126734
6 *246:A *256:A 0.000163193
7 *246:A *43:38 0
8 *246:A *80:12 0
9 counter_out[5] *246:A 0
*RES
1 *207:X *246:A 14.94 
*END

*D_NET *26 0.00132614
*CONN
*I *236:A I *D sky130_fd_sc_hd__dlygate4sd3_1
*I *208:X O *D sky130_fd_sc_hd__mux2_1
*CAP
1 *236:A 0.000265968
2 *208:X 0.000265968
3 *236:A *187:B1 0
4 *236:A *195:B 0
5 *236:A *197:D 0
6 *236:A *208:A1 0.000523559
7 *236:A *224:D 0.000270647
8 *236:A *43:38 0
*RES
1 *208:X *236:A 14.49 
*END

*D_NET *27 0.000106447
*CONN
*I *248:A I *D sky130_fd_sc_hd__dlygate4sd3_1
*I *209:X O *D sky130_fd_sc_hd__mux2_1
*CAP
1 *248:A 5.32236e-05
2 *209:X 5.32236e-05
*RES
1 *209:X *248:A 4.01 
*END

*D_NET *28 0.00117702
*CONN
*I *250:A I *D sky130_fd_sc_hd__dlygate4sd3_1
*I *210:X O *D sky130_fd_sc_hd__mux2_1
*CAP
1 *250:A 0.000150514
2 *210:X 0.000150514
3 *250:A *209:A0 0.000431328
4 *250:A *209:A1 0
5 *250:A *210:S 0
6 *250:A *43:21 0.000394699
7 *250:A *43:30 4.99619e-05
*RES
1 *210:X *250:A 12.48 
*END

*D_NET *29 0.00846752
*CONN
*I *195:A I *D sky130_fd_sc_hd__nand2_1
*I *198:B1 I *D sky130_fd_sc_hd__o21ai_1
*I *200:B1_N I *D sky130_fd_sc_hd__a21boi_1
*I *191:B1 I *D sky130_fd_sc_hd__o21ai_1
*I *190:A I *D sky130_fd_sc_hd__and3_1
*I *181:B I *D sky130_fd_sc_hd__and2b_1
*I *182:B1_N I *D sky130_fd_sc_hd__a21boi_1
*I *186:A I *D sky130_fd_sc_hd__and3_1
*I *180:Y O *D sky130_fd_sc_hd__nand2b_2
*CAP
1 *195:A 0.000566441
2 *198:B1 0.000120109
3 *200:B1_N 0.000128639
4 *191:B1 0
5 *190:A 0
6 *181:B 3.61979e-05
7 *182:B1_N 0
8 *186:A 0.000301554
9 *180:Y 0
10 *29:67 0.000368422
11 *29:28 0.000654889
12 *29:26 0.000537563
13 *29:22 0.000609984
14 *29:14 0.000873223
15 *29:6 0.000530944
16 *29:4 0.000566441
17 *186:A *252:A 4.99619e-05
18 *186:A *48:37 0
19 *195:A *196:B 0.000271715
20 *195:A *197:A 0.000120655
21 *195:A *215:CLK 8.53113e-06
22 *195:A *38:10 0.000111096
23 *195:A *46:33 0.000384407
24 *195:A *46:65 0.000183043
25 *195:A *83:8 4.66108e-05
26 *198:B1 *196:A 4.23502e-06
27 *198:B1 *200:A1 8.65961e-05
28 *198:B1 *200:A2 4.66108e-05
29 *198:B1 *201:A2 4.66108e-05
30 *198:B1 *258:A 0
31 *198:B1 *40:19 6.26955e-05
32 *200:B1_N *201:B1 1.08758e-05
33 *200:B1_N *258:A 0
34 *200:B1_N *55:14 0
35 *29:14 *180:B 3.09164e-05
36 *29:14 *191:A1 7.01479e-05
37 *29:14 *192:A1 2.0514e-05
38 *29:14 *196:B 0.000352161
39 *29:14 *197:B 0.000254651
40 *29:14 *52:10 9.37731e-05
41 *29:22 *191:A2 8.97642e-05
42 *29:22 *196:B 0
43 *29:22 *34:68 0
44 *29:26 *183:B1 0
45 *29:28 *48:27 0
46 *29:28 *48:37 0
47 *29:67 *180:B 2.92496e-05
48 *29:67 *196:A 2.38115e-05
49 *29:67 *197:B 0.000138279
50 *29:67 *202:A_N 0.000149971
51 *29:67 *38:10 0
52 *29:67 *40:19 1.50624e-05
53 *29:67 *55:14 0
54 *29:67 *55:18 0
55 counter_out[6] *200:B1_N 5.07419e-05
56 *211:D *29:28 0.000136909
57 *212:D *29:26 0
58 *212:D *29:28 0
59 *217:D *29:14 0.000170323
60 *240:A *29:22 0.000113191
*RES
1 *180:Y *29:4 1.6 
2 *29:4 *29:6 2 
3 *29:6 *29:14 11.57 
4 *29:14 *29:22 12.145 
5 *29:22 *29:26 4.145 
6 *29:26 *29:28 6.735 
7 *29:28 *186:A 8.175 
8 *29:28 *182:B1_N 3.6 
9 *29:26 *181:B 4.05 
10 *29:22 *190:A 1.6 
11 *29:14 *191:B1 1.6 
12 *29:6 *29:67 3.2925 
13 *29:67 *200:B1_N 5.9325 
14 *29:67 *198:B1 6.1875 
15 *29:4 *195:A 17.255 
*END

*D_NET *30 0.00158579
*CONN
*I *183:B1 I *D sky130_fd_sc_hd__o21a_1
*I *182:Y O *D sky130_fd_sc_hd__a21boi_1
*CAP
1 *183:B1 0.000381234
2 *182:Y 0.000381234
3 *183:B1 *182:A1 2.4526e-05
4 *183:B1 *182:A2 2.75145e-05
5 *183:B1 *183:A2 2.87867e-05
6 *183:B1 *47:10 6.73665e-05
7 *183:B1 *47:76 0.000132714
8 *183:B1 *48:27 0.000451256
9 *183:B1 *48:75 0
10 *183:B1 *66:20 5.83121e-06
11 *212:D *183:B1 8.53255e-05
12 *29:26 *183:B1 0
*RES
1 *182:Y *183:B1 16.44 
*END

*D_NET *31 0.000413631
*CONN
*I *186:B I *D sky130_fd_sc_hd__and3_1
*I *184:X O *D sky130_fd_sc_hd__a21o_1
*CAP
1 *186:B 0.000138545
2 *184:X 0.000138545
3 *186:B *48:37 8.82557e-05
4 *213:D *186:B 4.82863e-05
*RES
1 *184:X *186:B 5.03 
*END

*D_NET *32 0.00172772
*CONN
*I *186:C I *D sky130_fd_sc_hd__and3_1
*I *185:Y O *D sky130_fd_sc_hd__nand3_1
*CAP
1 *186:C 0.00035252
2 *185:Y 0.00035252
3 *186:C *214:CLK 0.000249921
4 *186:C *252:A 0
5 *186:C *47:10 4.03082e-05
6 *186:C *47:33 7.80594e-05
7 *186:C *47:76 0.000112963
8 *186:C *48:10 7.23602e-05
9 *186:C *48:37 8.8592e-05
10 *213:D *186:C 0.000286356
11 *228:A *186:C 9.41173e-05
*RES
1 *185:Y *186:C 16.575 
*END

*D_NET *33 0.00250993
*CONN
*I *190:B I *D sky130_fd_sc_hd__and3_1
*I *187:X O *D sky130_fd_sc_hd__a31o_1
*CAP
1 *190:B 0.000412303
2 *187:X 0.000412303
3 *190:B *183:A1 0.000158066
4 *190:B *189:A 5.04569e-05
5 *190:B *190:C 0.000586233
6 *190:B *207:A0 1.1392e-05
7 *190:B *229:A 0.000220452
8 *190:B *230:A 7.23602e-05
9 *190:B *243:A 0.00017519
10 *190:B *34:10 5.84698e-05
11 *190:B *34:20 0.000151346
12 *214:D *190:B 0.00020136
*RES
1 *187:X *190:B 19.5 
*END

*D_NET *34 0.0087537
*CONN
*I *189:A I *D sky130_fd_sc_hd__inv_2
*I *193:A2 I *D sky130_fd_sc_hd__a21o_1
*I *192:A2 I *D sky130_fd_sc_hd__a21oi_1
*I *191:A2 I *D sky130_fd_sc_hd__o21ai_1
*I *197:D I *D sky130_fd_sc_hd__and4_1
*I *194:C I *D sky130_fd_sc_hd__and3_1
*I *188:X O *D sky130_fd_sc_hd__and4_2
*CAP
1 *189:A 0.000327278
2 *193:A2 2.08101e-05
3 *192:A2 0
4 *191:A2 0.00029462
5 *197:D 0.000564837
6 *194:C 0.000143808
7 *188:X 0
8 *34:68 0.000605724
9 *34:54 0.000508881
10 *34:20 0.000854423
11 *34:10 0.000512488
12 *34:4 0.00051702
13 *189:A *187:A3 0
14 *189:A *188:A 0
15 *189:A *190:C 0.000131799
16 *189:A *229:A 0.000344586
17 *189:A *243:A 9.76407e-06
18 *189:A *49:31 0.000220841
19 *194:C *207:A0 0.000121541
20 *194:C *51:68 2.59784e-05
21 *197:D *195:B 6.10014e-05
22 *197:D *197:A 2.49909e-05
23 *197:D *197:B 2.17353e-05
24 *197:D *197:C 5.40596e-05
25 *197:D *198:A1 4.66606e-05
26 *197:D *207:A0 0.000187468
27 *197:D *208:A1 0
28 *197:D *208:S 2.66852e-05
29 *197:D *209:A0 9.76407e-06
30 *197:D *230:A 0
31 *197:D *43:6 0.000454223
32 *197:D *53:12 0.00030705
33 *197:D *54:10 0.000271327
34 *197:D *71:18 0.000113872
35 *34:10 *190:C 4.89295e-05
36 *34:10 *229:A 2.75092e-05
37 *34:20 *187:A1 0.000201128
38 *34:20 *187:A2 0.00019683
39 *34:20 *195:B 0
40 *34:20 *230:A 6.26489e-05
41 *34:20 *48:75 0.000193905
42 *34:54 *193:A1 0.0001138
43 *34:54 *195:B 0.000348991
44 *34:54 *229:A 1.50383e-05
45 *34:54 *48:75 0.000309012
46 *34:68 *192:B1 0
47 *34:68 *193:B1 0
48 *34:68 *215:CLK 5.98942e-05
49 *34:68 *215:D 1.52184e-05
50 *34:68 *52:10 0
51 *190:B *189:A 5.04569e-05
52 *190:B *34:10 5.84698e-05
53 *190:B *34:20 0.000151346
54 *236:A *197:D 0
55 *240:A *191:A2 2.75229e-05
56 *240:A *34:68 0
57 *29:22 *191:A2 8.97642e-05
58 *29:22 *34:68 0
*RES
1 *188:X *34:4 1.6 
2 *34:4 *34:10 4.61 
3 *34:10 *34:20 10.995 
4 *34:20 *194:C 3.49 
5 *34:20 *197:D 23.535 
6 *34:10 *34:54 7.55 
7 *34:54 *34:68 8.8 
8 *34:68 *191:A2 10.355 
9 *34:68 *192:A2 1.6 
10 *34:54 *193:A2 1.96 
11 *34:4 *189:A 13.13 
*END

*D_NET *35 0.00255813
*CONN
*I *190:C I *D sky130_fd_sc_hd__and3_1
*I *189:Y O *D sky130_fd_sc_hd__inv_2
*CAP
1 *190:C 0.000639885
2 *189:Y 0.000639885
3 *190:C *229:A 0.000358257
4 *190:C *49:18 0.000153139
5 *189:A *190:C 0.000131799
6 *190:B *190:C 0.000586233
7 *34:10 *190:C 4.89295e-05
*RES
1 *189:Y *190:C 20.025 
*END

*D_NET *36 0.0005131
*CONN
*I *192:B1 I *D sky130_fd_sc_hd__a21oi_1
*I *191:Y O *D sky130_fd_sc_hd__o21ai_1
*CAP
1 *192:B1 0.000129179
2 *191:Y 0.000129179
3 *192:B1 *191:A1 0.000120655
4 *192:B1 *192:A1 3.86529e-05
5 *192:B1 *215:D 0
6 *240:A *192:B1 9.5433e-05
7 *34:68 *192:B1 0
*RES
1 *191:Y *192:B1 9.465 
*END

*D_NET *37 0.00210214
*CONN
*I *195:B I *D sky130_fd_sc_hd__nand2_1
*I *193:X O *D sky130_fd_sc_hd__a21o_1
*CAP
1 *195:B 0.000551913
2 *193:X 0.000551913
3 *195:B *187:B1 7.63125e-05
4 *195:B *188:B 0.00012752
5 *195:B *224:D 0
6 *195:B *44:8 0.000262805
7 *195:B *48:75 0.00012168
8 *197:D *195:B 6.10014e-05
9 *236:A *195:B 0
10 *34:20 *195:B 0
11 *34:54 *195:B 0.000348991
*RES
1 *193:X *195:B 18.225 
*END

*D_NET *38 0.00356279
*CONN
*I *198:A2 I *D sky130_fd_sc_hd__o21ai_1
*I *196:A I *D sky130_fd_sc_hd__nor2_1
*I *194:X O *D sky130_fd_sc_hd__and3_1
*CAP
1 *198:A2 0.000145216
2 *196:A 0.000519888
3 *194:X 0.000375555
4 *38:10 0.00104066
5 *196:A *202:A_N 2.75229e-05
6 *196:A *40:19 8.53113e-06
7 *196:A *43:6 6.3124e-06
8 *198:A2 *198:A1 2.75407e-05
9 *198:A2 *199:B 0.000104612
10 *198:A2 *40:19 0.000107739
11 *38:10 *197:A 0.000402743
12 *38:10 *198:A1 6.15913e-05
13 *38:10 *199:B 2.10433e-05
14 *38:10 *202:A_N 1.45134e-05
15 *38:10 *215:CLK 0.000162778
16 *38:10 *46:65 0.000172151
17 *38:10 *51:8 2.39426e-05
18 *38:10 *51:21 0.000116158
19 *38:10 *51:68 1.52418e-05
20 *195:A *38:10 0.000111096
21 *198:B1 *196:A 4.23502e-06
22 *216:D *196:A 1.40133e-05
23 *217:D *38:10 5.58982e-05
24 *218:D *38:10 0
25 *29:67 *196:A 2.38115e-05
26 *29:67 *38:10 0
*RES
1 *194:X *38:10 12.9675 
2 *38:10 *196:A 10.2975 
3 *38:10 *198:A2 6.2625 
*END

*D_NET *39 0.00326098
*CONN
*I *196:B I *D sky130_fd_sc_hd__nor2_1
*I *195:Y O *D sky130_fd_sc_hd__nand2_1
*CAP
1 *196:B 0.000931422
2 *195:Y 0.000931422
3 *196:B *191:A1 8.65439e-05
4 *196:B *192:A1 0.00012657
5 *196:B *197:B 0
6 *196:B *215:D 2.05056e-05
7 *196:B *217:CLK 2.28686e-05
8 *196:B *46:33 8.65006e-05
9 *196:B *51:25 8.40213e-05
10 *196:B *52:10 0
11 *196:B *55:18 1.94723e-05
12 *195:A *196:B 0.000271715
13 *216:D *196:B 0.000314452
14 *217:D *196:B 1.33285e-05
15 *29:14 *196:B 0.000352161
16 *29:22 *196:B 0
*RES
1 *195:Y *196:B 25.32 
*END

*D_NET *40 0.00152969
*CONN
*I *201:A2 I *D sky130_fd_sc_hd__o21a_1
*I *200:A2 I *D sky130_fd_sc_hd__a21boi_1
*I *199:A I *D sky130_fd_sc_hd__nor2_1
*I *197:X O *D sky130_fd_sc_hd__and4_1
*CAP
1 *201:A2 9.33536e-05
2 *200:A2 2.15559e-05
3 *199:A 3.98918e-05
4 *197:X 0.000101107
5 *40:19 0.000163012
6 *40:6 0.000189101
7 *200:A2 *200:A1 2.16833e-05
8 *200:A2 *201:B1 8.40213e-05
9 *201:A2 *200:A1 0.000289722
10 *201:A2 *201:B1 0.000180684
11 *40:6 *43:6 3.81908e-06
12 *196:A *40:19 8.53113e-06
13 *198:A2 *40:19 0.000107739
14 *198:B1 *200:A2 4.66108e-05
15 *198:B1 *201:A2 4.66108e-05
16 *198:B1 *40:19 6.26955e-05
17 *217:D *40:6 2.61299e-05
18 *218:D *201:A2 2.83579e-05
19 *29:67 *40:19 1.50624e-05
*RES
1 *197:X *40:6 2.74 
2 *40:6 *199:A 2.215 
3 *40:6 *40:19 5.38 
4 *40:19 *200:A2 2.395 
5 *40:19 *201:A2 5.275 
*END

*D_NET *41 0.00039239
*CONN
*I *199:B I *D sky130_fd_sc_hd__nor2_1
*I *198:Y O *D sky130_fd_sc_hd__o21ai_1
*CAP
1 *199:B 7.8628e-05
2 *198:Y 7.8628e-05
3 *199:B *198:A1 6.28687e-05
4 *199:B *201:B1 4.66108e-05
5 *198:A2 *199:B 0.000104612
6 *38:10 *199:B 2.10433e-05
*RES
1 *198:Y *199:B 9.03 
*END

*D_NET *42 0.000887054
*CONN
*I *201:B1 I *D sky130_fd_sc_hd__o21a_1
*I *200:Y O *D sky130_fd_sc_hd__a21boi_1
*CAP
1 *201:B1 0.000227276
2 *200:Y 0.000227276
3 *201:B1 *200:A1 1.61831e-05
4 *201:B1 *55:14 0
5 counter_out[6] *201:B1 7.68414e-06
6 *199:B *201:B1 4.66108e-05
7 *200:A2 *201:B1 8.40213e-05
8 *200:B1_N *201:B1 1.08758e-05
9 *201:A2 *201:B1 0.000180684
10 *218:D *201:B1 8.64421e-05
*RES
1 *200:Y *201:B1 7.82 
*END

*D_NET *43 0.010024
*CONN
*I *210:S I *D sky130_fd_sc_hd__mux2_1
*I *207:S I *D sky130_fd_sc_hd__mux2_1
*I *206:S I *D sky130_fd_sc_hd__mux2_1
*I *205:S I *D sky130_fd_sc_hd__mux2_1
*I *203:S I *D sky130_fd_sc_hd__mux2_1
*I *204:S I *D sky130_fd_sc_hd__mux2_1
*I *209:S I *D sky130_fd_sc_hd__mux2_1
*I *208:S I *D sky130_fd_sc_hd__mux2_1
*I *202:Y O *D sky130_fd_sc_hd__nand2b_4
*CAP
1 *210:S 0.000179795
2 *207:S 0.0001579
3 *206:S 0
4 *205:S 0
5 *203:S 0.000211546
6 *204:S 7.98926e-05
7 *209:S 0
8 *208:S 0.000173262
9 *202:Y 0.000688414
10 *43:48 0.000393991
11 *43:44 0.000642949
12 *43:38 0.00087858
13 *43:32 0.000865611
14 *43:30 0.000666794
15 *43:21 0.000300034
16 *43:6 0.00104424
17 *203:S *203:A0 0.000420335
18 *204:S *203:A0 0.000275548
19 *204:S *237:A 8.65905e-05
20 *208:S *208:A1 0
21 *208:S *226:D 0
22 *208:S *46:10 0
23 *208:S *46:12 0
24 *208:S *54:10 0.000100308
25 *208:S *81:10 7.06865e-05
26 *210:S *210:A1 5.83121e-06
27 *210:S *249:A 4.82919e-05
28 *210:S *82:12 0
29 *43:6 *202:A_N 1.19928e-05
30 *43:6 *209:A0 1.96634e-05
31 *43:30 *209:A0 4.60584e-05
32 *43:32 *226:D 0
33 *43:32 *46:10 0
34 *43:32 *46:12 0
35 *43:32 *82:12 0
36 *43:38 *208:A1 0
37 *43:38 *223:CLK 0
38 *43:38 *223:D 7.53115e-05
39 *43:38 *256:A 0
40 *43:38 *46:12 0
41 *43:38 *80:12 0.000290664
42 *43:44 *206:A0 1.19928e-05
43 *43:44 *206:A1 0.000366389
44 *43:44 *219:CLK 0.000155928
45 *43:44 *222:CLK 7.56945e-05
46 *43:44 *222:D 7.00066e-05
47 *43:44 *237:A 0
48 *43:44 *45:10 5.4256e-05
49 *43:44 *45:89 2.24336e-05
50 *43:48 *237:A 0
51 counter_out[5] *43:32 0
52 counter_out[5] *43:38 0
53 *196:A *43:6 6.3124e-06
54 *197:D *208:S 2.66852e-05
55 *197:D *43:6 0.000454223
56 *217:D *43:6 0.000122337
57 *219:D *43:44 0
58 *219:D *43:48 0
59 *220:D *43:44 0.000147397
60 *220:D *43:48 0.000116158
61 *236:A *43:38 0
62 *244:A *43:44 0.000160635
63 *246:A *207:S 5.07419e-05
64 *246:A *43:38 0
65 *250:A *210:S 0
66 *250:A *43:21 0.000394699
67 *250:A *43:30 4.99619e-05
68 *40:6 *43:6 3.81908e-06
*RES
1 *202:Y *43:6 9.985 
2 *43:6 *208:S 9.275 
3 *43:6 *43:21 4.17 
4 *43:21 *209:S 1.6 
5 *43:21 *43:30 4.175 
6 *43:30 *43:32 5.97 
7 *43:32 *43:38 8.93 
8 *43:38 *43:44 14.165 
9 *43:44 *43:48 3.89 
10 *43:48 *204:S 4.12 
11 *43:48 *203:S 6.91 
12 *43:44 *205:S 3.6 
13 *43:38 *206:S 1.6 
14 *43:32 *207:S 6.12 
15 *43:30 *210:S 6.45 
*END

*D_NET *44 0.00330651
*CONN
*I *230:A I *D sky130_fd_sc_hd__clkbuf_16
*I *229:A I *D sky130_fd_sc_hd__clkbuf_16
*I *228:X O *D sky130_fd_sc_hd__clkbuf_16
*CAP
1 *230:A 0.000435225
2 *229:A 0.000274243
3 *228:X 0.000202697
4 *44:8 0.000912165
5 *229:A *193:A1 0
6 *230:A *193:A1 0
7 *230:A *215:CLK 0
8 *230:A *51:21 0
9 *230:A *53:12 0
10 *189:A *229:A 0.000344586
11 *190:B *229:A 0.000220452
12 *190:B *230:A 7.23602e-05
13 *190:C *229:A 0.000358257
14 *195:B *44:8 0.000262805
15 *197:D *230:A 0
16 *218:D *230:A 0.000118527
17 *34:10 *229:A 2.75092e-05
18 *34:20 *230:A 6.26489e-05
19 *34:54 *229:A 1.50383e-05
*RES
1 *228:X *44:8 6.12 
2 *44:8 *229:A 11.22 
3 *44:8 *230:A 10.845 
*END

*D_NET *45 0.00609836
*CONN
*I *222:CLK I *D sky130_fd_sc_hd__dfxtp_1
*I *221:CLK I *D sky130_fd_sc_hd__dfxtp_1
*I *219:CLK I *D sky130_fd_sc_hd__dfxtp_1
*I *220:CLK I *D sky130_fd_sc_hd__dfxtp_1
*I *231:A I *D sky130_fd_sc_hd__clkbuf_4
*I *214:CLK I *D sky130_fd_sc_hd__dfxtp_1
*I *212:CLK I *D sky130_fd_sc_hd__dfxtp_1
*I *211:CLK I *D sky130_fd_sc_hd__dfxtp_1
*I *213:CLK I *D sky130_fd_sc_hd__dfxtp_1
*I *229:X O *D sky130_fd_sc_hd__clkbuf_16
*CAP
1 *222:CLK 0.00013041
2 *221:CLK 0.000112943
3 *219:CLK 0.000132162
4 *220:CLK 0
5 *231:A 0
6 *214:CLK 0.000181563
7 *212:CLK 0.00012899
8 *211:CLK 2.61909e-05
9 *213:CLK 0
10 *229:X 0
11 *45:89 0.000256845
12 *45:67 0.000164896
13 *45:27 0.000747633
14 *45:23 0.000809566
15 *45:16 0.000319286
16 *45:12 0.000324767
17 *45:10 0.000131763
18 *45:6 7.14888e-05
19 *214:CLK *185:B 5.83121e-06
20 *214:CLK *47:106 1.08758e-05
21 *214:CLK *48:10 1.1561e-05
22 *214:CLK *48:75 2.86623e-05
23 *219:CLK *203:A1 5.34747e-05
24 *219:CLK *66:20 0.0001249
25 *219:CLK *76:8 1.56428e-05
26 *221:CLK *221:D 0.000275553
27 *222:CLK *243:A 6.97202e-05
28 *222:CLK *253:A 9.58766e-05
29 *45:10 *237:A 4.20983e-05
30 *45:10 *253:A 3.86607e-05
31 *45:12 *233:A 6.52265e-05
32 *45:12 *76:8 3.1835e-05
33 *45:16 *233:A 0.000260847
34 *45:16 *49:8 7.65948e-05
35 *45:67 *233:A 3.77036e-05
36 *45:67 *76:8 4.80182e-05
37 *45:89 *253:A 2.68721e-05
38 counter_out[1] *222:CLK 8.57024e-05
39 *186:C *214:CLK 0.000249921
40 *211:D *211:CLK 3.05295e-05
41 *211:D *212:CLK 6.36578e-05
42 *211:D *45:27 1.55468e-05
43 *213:D *45:16 0.00011085
44 *213:D *45:27 1.90762e-05
45 *214:D *214:CLK 0.000114427
46 *220:D *219:CLK 3.57349e-05
47 *220:D *45:67 4.66108e-05
48 *228:A *214:CLK 0.000159535
49 *43:44 *219:CLK 0.000155928
50 *43:44 *222:CLK 7.56945e-05
51 *43:44 *45:10 5.4256e-05
52 *43:44 *45:89 2.24336e-05
*RES
1 *229:X *45:6 3.6 
2 *45:6 *45:10 3.635 
3 *45:10 *45:12 1.14 
4 *45:12 *45:16 6.33 
5 *45:16 *213:CLK 1.6 
6 *45:16 *45:23 0.615 
7 *45:23 *45:27 8.315 
8 *45:27 *211:CLK 4.215 
9 *45:27 *212:CLK 5.775 
10 *45:23 *214:CLK 10.415 
11 *45:12 *231:A 1.6 
12 *45:10 *45:67 1.14 
13 *45:67 *220:CLK 1.6 
14 *45:67 *219:CLK 9.08 
15 *45:6 *45:89 0.615 
16 *45:89 *221:CLK 6.12 
17 *45:89 *222:CLK 7.44 
*END

*D_NET *46 0.0075207
*CONN
*I *225:CLK I *D sky130_fd_sc_hd__dfxtp_1
*I *226:CLK I *D sky130_fd_sc_hd__dfxtp_1
*I *224:CLK I *D sky130_fd_sc_hd__dfxtp_1
*I *227:CLK I *D sky130_fd_sc_hd__dfxtp_1
*I *216:CLK I *D sky130_fd_sc_hd__dfxtp_1
*I *218:CLK I *D sky130_fd_sc_hd__dfxtp_1
*I *215:CLK I *D sky130_fd_sc_hd__dfxtp_1
*I *217:CLK I *D sky130_fd_sc_hd__dfxtp_1
*I *223:CLK I *D sky130_fd_sc_hd__dfxtp_1
*I *230:X O *D sky130_fd_sc_hd__clkbuf_16
*CAP
1 *225:CLK 0.000375432
2 *226:CLK 0
3 *224:CLK 0
4 *227:CLK 0.000301407
5 *216:CLK 0.000135445
6 *218:CLK 0
7 *215:CLK 0.000395153
8 *217:CLK 1.7218e-05
9 *223:CLK 8.58379e-05
10 *230:X 0
11 *46:74 0.000784017
12 *46:65 0.000401616
13 *46:42 0.000449605
14 *46:33 0.000434943
15 *46:25 0.000586557
16 *46:12 0.000355802
17 *46:10 0.000214857
18 *46:4 0.000489157
19 *215:CLK *194:B 4.87317e-05
20 *215:CLK *215:D 1.43717e-05
21 *215:CLK *51:8 3.45679e-05
22 *215:CLK *51:21 1.15688e-05
23 *223:CLK *208:A1 0.000159957
24 *225:CLK *225:D 1.43717e-05
25 *225:CLK *81:10 2.11084e-05
26 *227:CLK *197:B 0
27 *227:CLK *227:D 0.000429936
28 *227:CLK *55:18 2.92496e-05
29 *46:10 *226:D 7.89767e-05
30 *46:10 *81:10 1.83847e-05
31 *46:12 *208:A1 0.000177568
32 *46:25 *224:D 5.20335e-05
33 *46:33 *191:A1 0
34 *46:74 *208:A0 1.1392e-05
35 *46:74 *52:8 5.0933e-05
36 *195:A *215:CLK 8.53113e-06
37 *195:A *46:33 0.000384407
38 *195:A *46:65 0.000183043