*SPEF "ieee 1481-1999"
*DESIGN "dig"
*DATE "20:11:06 Saturday April 05, 2025"
*VENDOR "The OpenROAD Project"
*PROGRAM "OpenROAD"
*VERSION "edf00dff99f6c40d67a30c0e22a8191c5d2ed9d6"
*DESIGN_FLOW "NAME_SCOPE LOCAL" "PIN_CAP NONE"
*DIVIDER /
*DELIMITER :
*BUS_DELIMITER []
*T_UNIT 1 NS
*C_UNIT 1 PF
*R_UNIT 1 OHM
*L_UNIT 1 HENRY

*NAME_MAP
*3 clk
*4 counter_out[0]
*5 counter_out[1]
*6 counter_out[2]
*7 counter_out[3]
*8 counter_out[4]
*9 counter_out[5]
*10 counter_out[6]
*11 counter_out[7]
*12 trigger
*13 _00_
*14 _01_
*15 _02_
*16 _03_
*17 _04_
*18 _05_
*19 _06_
*20 _07_
*21 _08_
*22 _09_
*23 _10_
*24 _11_
*25 _12_
*26 _13_
*27 _14_
*28 _15_
*29 _16_
*30 _17_
*31 _18_
*32 _19_
*33 _20_
*34 _21_
*35 _22_
*36 _23_
*37 _24_
*38 _25_
*39 _26_
*40 _27_
*41 _28_
*42 _29_
*43 _30_
*44 clknet_0_clk
*45 clknet_1_0__leaf_clk
*46 clknet_1_1__leaf_clk
*47 counter\[0\]
*48 counter\[1\]
*49 counter\[2\]
*50 counter\[3\]
*51 counter\[4\]
*52 counter\[5\]
*53 counter\[6\]
*54 counter\[7\]
*55 net1
*56 net10
*57 net11
*58 net12
*59 net13
*60 net14
*61 net15
*62 net16
*63 net17
*64 net18
*65 net19
*66 net2
*67 net20
*68 net21
*69 net22
*70 net23
*71 net24
*72 net25
*73 net26
*74 net27
*75 net28
*76 net3
*77 net4
*78 net5
*79 net6
*80 net7
*81 net8
*82 net9
*83 trigger_prev
*84 FILLER_0_12
*85 FILLER_0_15
*86 FILLER_0_18
*87 FILLER_0_29
*88 FILLER_0_3
*89 FILLER_0_53
*90 FILLER_0_57
*91 FILLER_0_6
*92 FILLER_0_69
*93 FILLER_0_9
*94 FILLER_10_29
*95 FILLER_10_3
*96 FILLER_11_12
*97 FILLER_11_3
*98 FILLER_11_39
*99 FILLER_11_57
*100 FILLER_11_6
*101 FILLER_11_9
*102 FILLER_12_12
*103 FILLER_12_15
*104 FILLER_12_29
*105 FILLER_12_57
*106 FILLER_12_6
*107 FILLER_12_73
*108 FILLER_12_9
*109 FILLER_1_12
*110 FILLER_1_15
*111 FILLER_1_3
*112 FILLER_1_6
*113 FILLER_1_73
*114 FILLER_1_9
*115 FILLER_2_29
*116 FILLER_2_3
*117 FILLER_2_52
*118 FILLER_2_6
*119 FILLER_2_69
*120 FILLER_2_9
*121 FILLER_3_12
*122 FILLER_3_3
*123 FILLER_3_30
*124 FILLER_3_6
*125 FILLER_3_73
*126 FILLER_3_9
*127 FILLER_4_12
*128 FILLER_4_3
*129 FILLER_4_49
*130 FILLER_4_6
*131 FILLER_4_70
*132 FILLER_4_9
*133 FILLER_5_12
*134 FILLER_5_15
*135 FILLER_5_28
*136 FILLER_5_3
*137 FILLER_5_47
*138 FILLER_5_6
*139 FILLER_5_74
*140 FILLER_5_9
*141 FILLER_6_12
*142 FILLER_6_15
*143 FILLER_6_18
*144 FILLER_6_21
*145 FILLER_6_29
*146 FILLER_6_3
*147 FILLER_6_52
*148 FILLER_6_6
*149 FILLER_6_70
*150 FILLER_6_9
*151 FILLER_7_12
*152 FILLER_7_3
*153 FILLER_7_39
*154 FILLER_7_6
*155 FILLER_7_73
*156 FILLER_7_9
*157 FILLER_8_29
*158 FILLER_8_3
*159 FILLER_8_49
*160 FILLER_8_6
*161 FILLER_9_12
*162 FILLER_9_3
*163 FILLER_9_6
*164 FILLER_9_73
*165 FILLER_9_9
*166 PHY_EDGE_ROW_0_Left_13
*167 PHY_EDGE_ROW_0_Right_0
*168 PHY_EDGE_ROW_10_Left_23
*169 PHY_EDGE_ROW_10_Right_10
*170 PHY_EDGE_ROW_11_Left_24
*171 PHY_EDGE_ROW_11_Right_11
*172 PHY_EDGE_ROW_12_Left_25
*173 PHY_EDGE_ROW_12_Right_12
*174 PHY_EDGE_ROW_1_Left_14
*175 PHY_EDGE_ROW_1_Right_1
*176 PHY_EDGE_ROW_2_Left_15
*177 PHY_EDGE_ROW_2_Right_2
*178 PHY_EDGE_ROW_3_Left_16
*179 PHY_EDGE_ROW_3_Right_3
*180 PHY_EDGE_ROW_4_Left_17
*181 PHY_EDGE_ROW_4_Right_4
*182 PHY_EDGE_ROW_5_Left_18
*183 PHY_EDGE_ROW_5_Right_5
*184 PHY_EDGE_ROW_6_Left_19
*185 PHY_EDGE_ROW_6_Right_6
*186 PHY_EDGE_ROW_7_Left_20
*187 PHY_EDGE_ROW_7_Right_7
*188 PHY_EDGE_ROW_8_Left_21
*189 PHY_EDGE_ROW_8_Right_8
*190 PHY_EDGE_ROW_9_Left_22
*191 PHY_EDGE_ROW_9_Right_9
*192 TAP_TAPCELL_ROW_0_26
*193 TAP_TAPCELL_ROW_0_27
*194 TAP_TAPCELL_ROW_10_37
*195 TAP_TAPCELL_ROW_11_38
*196 TAP_TAPCELL_ROW_12_39
*197 TAP_TAPCELL_ROW_12_40
*198 TAP_TAPCELL_ROW_1_28
*199 TAP_TAPCELL_ROW_2_29
*200 TAP_TAPCELL_ROW_3_30
*201 TAP_TAPCELL_ROW_4_31
*202 TAP_TAPCELL_ROW_5_32
*203 TAP_TAPCELL_ROW_6_33
*204 TAP_TAPCELL_ROW_7_34
*205 TAP_TAPCELL_ROW_8_35
*206 TAP_TAPCELL_ROW_9_36
*207 _31_
*208 _32_
*209 _33_
*210 _34_
*211 _35_
*212 _36_
*213 _37_
*214 _38_
*215 _39_
*216 _40_
*217 _41_
*218 _42_
*219 _43_
*220 _44_
*221 _45_
*222 _46_
*223 _47_
*224 _48_
*225 _49_
*226 _50_
*227 _51_
*228 _52_
*229 _53_
*230 _54_
*231 _55_
*232 _56_
*233 _57_
*234 _58_
*235 _59_
*236 _60_
*237 _61_
*238 _62_
*239 _63_
*240 _64_
*241 _65_
*242 _66_
*243 _67_
*244 _68_
*245 _69_
*246 _70_
*247 _71_
*248 _72_
*249 _73_
*250 _74_
*251 _75_
*252 _76_
*253 _77_
*254 _78_
*255 clkbuf_0_clk
*256 clkbuf_1_0__f_clk
*257 clkbuf_1_1__f_clk
*258 clkload0
*259 hold1
*260 hold10
*261 hold11
*262 hold12
*263 hold13
*264 hold14
*265 hold15
*266 hold16
*267 hold17
*268 hold18
*269 hold19
*270 hold2
*271 hold3
*272 hold4
*273 hold5
*274 hold6
*275 hold7
*276 hold8
*277 hold9
*278 input1
*279 output2
*280 output3
*281 output4
*282 output5
*283 output6
*284 output7
*285 output8
*286 output9

*PORTS
clk I
counter_out[0] O
counter_out[1] O
counter_out[2] O
counter_out[3] O
counter_out[4] O
counter_out[5] O
counter_out[6] O
counter_out[7] O
trigger I

*D_NET *3 0.00372705
*CONN
*P clk I
*I *255:A I *D sky130_fd_sc_hd__clkbuf_16
*CAP
1 clk 0.00152841
2 *255:A 0.00152841
3 *255:A *211:B1 0
4 *255:A *213:C 9.41173e-05
5 *255:A *214:A1 0.00013521
6 *255:A *220:A1 2.97004e-06
7 *255:A *241:CLK 0.000159535
8 *255:A *241:D 0.000139245
9 *255:A *260:A 4.67041e-05
10 *255:A *47:33 6.10392e-05
11 *255:A *47:106 3.14025e-05
12 *255:A *48:75 0
*RES
1 clk *255:A 16.9915 
*END

*D_NET *4 0.00417757
*CONN
*P counter_out[0] O
*I *279:X O *D sky130_fd_sc_hd__buf_2
*CAP
1 counter_out[0] 0.00208879
2 *279:X 0.00208879
3 counter_out[0] counter_out[1] 0
*RES
1 *279:X counter_out[0] 29.6327 
*END

*D_NET *5 0.00334828
*CONN
*P counter_out[1] O
*I *280:X O *D sky130_fd_sc_hd__buf_2
*CAP
1 counter_out[1] 0.000910864
2 *280:X 0.000910864
3 counter_out[1] counter_out[2] 0.000332374
4 counter_out[1] counter_out[3] 0.000273001
5 counter_out[1] *249:CLK 8.57024e-05
6 counter_out[1] *249:D 7.99391e-05
7 counter_out[1] *270:A 0.000169125
8 counter_out[1] *281:A 0.00031916
9 counter_out[1] *282:A 8.35126e-05
10 counter_out[1] *77:10 0.000183738
11 counter_out[0] counter_out[1] 0
*RES
1 *280:X counter_out[1] 20.7433 
*END

*D_NET *6 0.00105907
*CONN
*P counter_out[2] O
*I *281:X O *D sky130_fd_sc_hd__buf_2
*CAP
1 counter_out[2] 0.000363347
2 *281:X 0.000363347
3 counter_out[2] counter_out[3] 0
4 counter_out[1] counter_out[2] 0.000332374
*RES
1 *281:X counter_out[2] 8.47503 
*END

*D_NET *7 0.00122474
*CONN
*P counter_out[3] O
*I *282:X O *D sky130_fd_sc_hd__buf_2
*CAP
1 counter_out[3] 0.000409308
2 *282:X 0.000409308
3 counter_out[3] counter_out[4] 5.89925e-05
4 counter_out[3] *282:A 0
5 counter_out[3] *283:A 7.41259e-05
6 counter_out[1] counter_out[3] 0.000273001
7 counter_out[2] counter_out[3] 0
*RES
1 *282:X counter_out[3] 9.49503 
*END

*D_NET *8 0.00132738
*CONN
*P counter_out[4] O
*I *283:X O *D sky130_fd_sc_hd__buf_2
*CAP
1 counter_out[4] 0.000496155
2 *283:X 0.000496155
3 counter_out[4] counter_out[5] 0.000154806
4 counter_out[4] *283:A 0.00012127
5 counter_out[3] counter_out[4] 5.89925e-05
*RES
1 *283:X counter_out[4] 10.9068 
*END

*D_NET *9 0.00141577
*CONN
*P counter_out[5] O
*I *284:X O *D sky130_fd_sc_hd__buf_2
*CAP
1 counter_out[5] 0.000588218
2 *284:X 0.000588218
3 counter_out[5] counter_out[6] 0
4 counter_out[5] *234:A0 7.21296e-06
5 counter_out[5] *234:A1 3.86607e-05
6 counter_out[5] *273:A 0
7 counter_out[5] *283:A 3.86529e-05
8 counter_out[5] *43:32 0
9 counter_out[5] *43:38 0
10 counter_out[5] *82:12 0
11 counter_out[4] counter_out[5] 0.000154806
*RES
1 *284:X counter_out[5] 11.535 
*END

*D_NET *10 0.00468309
*CONN
*P counter_out[6] O
*I *285:X O *D sky130_fd_sc_hd__buf_2
*CAP
1 counter_out[6] 0.00161301
2 *285:X 0.00161301
3 counter_out[6] counter_out[7] 0
4 counter_out[6] *227:A1 0.000504864
5 counter_out[6] *227:B1_N 5.07419e-05
6 counter_out[6] *228:B1 7.68414e-06
7 counter_out[6] *276:A 0.000846429
8 counter_out[6] *55:14 1.4389e-05
9 counter_out[6] *71:18 3.29573e-05
10 counter_out[5] counter_out[6] 0
*RES
1 *285:X counter_out[6] 21.0277 
*END

*D_NET *11 0.00104618
*CONN
*P counter_out[7] O
*I *286:X O *D sky130_fd_sc_hd__buf_2
*CAP
1 counter_out[7] 0.000523089
2 *286:X 0.000523089
3 counter_out[6] counter_out[7] 0
*RES
1 *286:X counter_out[7] 9.61157 
*END

*D_NET *12 0.000650278
*CONN
*P trigger I
*I *278:A I *D sky130_fd_sc_hd__buf_1
*CAP
1 trigger 0.000325139
2 *278:A 0.000325139
*RES
1 trigger *278:A 7.8543 
*END

*D_NET *13 0.000687206
*CONN
*I *238:D I *D sky130_fd_sc_hd__dfxtp_1
*I *208:X O *D sky130_fd_sc_hd__and2b_1
*CAP
1 *238:D 0.000220282
2 *208:X 0.000220282
3 *238:D *238:CLK 3.05295e-05
4 *238:D *239:CLK 6.36578e-05
5 *238:D *29:28 0.000136909
6 *238:D *45:27 1.55468e-05
*RES
1 *208:X *238:D 12.0787 
*END

*D_NET *14 0.00082141
*CONN
*I *239:D I *D sky130_fd_sc_hd__dfxtp_1
*I *210:X O *D sky130_fd_sc_hd__o21a_1
*CAP
1 *239:D 0.000298073
2 *210:X 0.000298073
3 *239:D *210:B1 8.53255e-05
4 *239:D *29:26 0
5 *239:D *29:28 0
6 *239:D *48:27 0.00013994
*RES
1 *210:X *239:D 12.4838 
*END

*D_NET *15 0.00113659
*CONN
*I *240:D I *D sky130_fd_sc_hd__dfxtp_1
*I *213:X O *D sky130_fd_sc_hd__and3_1
*CAP
1 *240:D 0.000229865
2 *213:X 0.000229865
3 *240:D *213:B 4.82863e-05
4 *240:D *213:C 0.000286356
5 *240:D *279:A 0
6 *240:D *45:16 0.00011085
7 *240:D *45:27 1.90762e-05
8 *240:D *47:10 0.000162325
9 *240:D *48:37 4.99619e-05
*RES
1 *213:X *240:D 12.7837 
*END

*D_NET *16 0.00154537
*CONN
*I *241:D I *D sky130_fd_sc_hd__dfxtp_1
*I *217:X O *D sky130_fd_sc_hd__and3_1
*CAP
1 *241:D 0.000315868
2 *217:X 0.000315868
3 *241:D *210:A1 0.000159747
4 *241:D *210:A2 4.82863e-05
5 *241:D *212:C 0.000152159
6 *241:D *217:B 0.00020136
7 *241:D *241:CLK 0.000114427
8 *241:D *270:A 9.10017e-06
9 *241:D *47:106 7.4027e-05
10 *241:D *48:75 1.52862e-05
11 *255:A *241:D 0.000139245
*RES
1 *217:X *241:D 14.505 
*END

*D_NET *17 0.000485378
*CONN
*I *267:A I *D sky130_fd_sc_hd__dlygate4sd3_1
*I *219:Y O *D sky130_fd_sc_hd__a21oi_1
*CAP
1 *267:A 0.000116356
2 *219:Y 0.000116356
3 *267:A *218:A2 2.75229e-05
4 *267:A *219:A1 1.65192e-05
5 *267:A *219:B1 9.5433e-05
6 *267:A *29:22 0.000113191
7 *267:A *34:68 0
*RES
1 *219:Y *267:A 10.05 
*END

*D_NET *18 0.000840907
*CONN
*I *243:D I *D sky130_fd_sc_hd__dfxtp_1
*I *223:Y O *D sky130_fd_sc_hd__nor2_1
*CAP
1 *243:D 0.000137197
2 *223:Y 0.000137197
3 *243:D *223:A 1.40133e-05
4 *243:D *223:B 0.000314452
5 *243:D *243:CLK 1.43717e-05
6 *243:D *254:CLK 0.000137578
7 *243:D *55:18 8.6099e-05
*RES
1 *223:Y *243:D 11.4637 
*END

*D_NET *19 0.00180368
*CONN
*I *244:D I *D sky130_fd_sc_hd__dfxtp_1
*I *226:Y O *D sky130_fd_sc_hd__nor2_1
*CAP
1 *244:D 0.000318287
2 *226:Y 0.000318287
3 *244:D *207:B 5.16348e-05
4 *244:D *223:B 1.33285e-05
5 *244:D *224:A 0.000395885
6 *244:D *229:A_N 0.000120645
7 *244:D *244:CLK 4.66108e-05
8 *244:D *29:14 0.000170323
9 *244:D *38:10 5.58982e-05
10 *244:D *40:6 2.61299e-05
11 *244:D *43:6 0.000122337
12 *244:D *46:33 6.17724e-05
13 *244:D *51:21 2.92496e-05
14 *244:D *51:25 4.66108e-05
15 *244:D *52:10 2.66765e-05
*RES
1 *226:Y *244:D 16.2787 
*END

*D_NET *20 0.00141402
*CONN
*I *245:D I *D sky130_fd_sc_hd__dfxtp_1
*I *228:X O *D sky130_fd_sc_hd__o21a_1
*CAP
1 *245:D 0.000468441
2 *228:X 0.000468441
3 *245:D *224:A 0.000158297
4 *245:D *224:B 2.17353e-05
5 *245:D *225:A1 0
6 *245:D *228:A2 2.83579e-05
7 *245:D *228:B1 8.64421e-05
8 *245:D *235:A0 4.935e-05
9 *245:D *257:A 0.000118527
10 *245:D *38:10 0
11 *245:D *53:12 0
12 *245:D *53:25 1.44259e-05
13 *245:D *71:18 0
*RES
1 *228:X *245:D 15.4087 
*END

*D_NET *21 0.000250248
*CONN
*I *246:D I *D sky130_fd_sc_hd__dfxtp_1
*I *230:X O *D sky130_fd_sc_hd__mux2_1
*CAP
1 *246:D 0.000115527
2 *230:X 0.000115527
3 *246:D *230:A1 4.82319e-06
4 *246:D *43:44 0
5 *246:D *43:48 0
6 *246:D *66:20 1.43717e-05
*RES
1 *230:X *246:D 8.97375 
*END

*D_NET *22 0.00091833
*CONN
*I *247:D I *D sky130_fd_sc_hd__dfxtp_1
*I *231:X O *D sky130_fd_sc_hd__mux2_1
*CAP
1 *247:D 0.000203345
2 *231:X 0.000203345
3 *247:D *246:CLK 3.57349e-05
4 *247:D *260:A 0.000145159
5 *247:D *264:A 0
6 *247:D *43:44 0.000147397
7 *247:D *43:48 0.000116158
8 *247:D *45:67 4.66108e-05
9 *247:D *76:8 2.05788e-05
*RES
1 *231:X *247:D 11.7338 
*END

*D_NET *23 0.000670793
*CONN
*I *261:A I *D sky130_fd_sc_hd__dlygate4sd3_1
*I *232:X O *D sky130_fd_sc_hd__mux2_1
*CAP
1 *261:A 6.65393e-05
2 *232:X 6.65393e-05
3 *261:A *230:A1 0.000272389
4 *261:A *66:20 0.000265326
*RES
1 *232:X *261:A 6.08 
*END

*D_NET *24 0.000646525
*CONN
*I *271:A I *D sky130_fd_sc_hd__dlygate4sd3_1
*I *233:X O *D sky130_fd_sc_hd__mux2_1
*CAP
1 *271:A 0.000117619
2 *233:X 0.000117619
3 *271:A *233:A0 5.17188e-05
4 *271:A *233:A1 0.000198934
5 *271:A *43:44 0.000160635
*RES
1 *233:X *271:A 6.425 
*END

*D_NET *25 0.00122887
*CONN
*I *273:A I *D sky130_fd_sc_hd__dlygate4sd3_1
*I *234:X O *D sky130_fd_sc_hd__mux2_1
*CAP
1 *273:A 0.000398401
2 *234:X 0.000398401
3 *273:A *234:A0 9.14049e-05
4 *273:A *234:S 5.07419e-05
5 *273:A *250:D 0.000126734
6 *273:A *283:A 0.000163193
7 *273:A *43:38 0
8 *273:A *80:12 0
9 counter_out[5] *273:A 0
*RES
1 *234:X *273:A 14.94 
*END

*D_NET *26 0.00132614
*CONN
*I *263:A I *D sky130_fd_sc_hd__dlygate4sd3_1
*I *235:X O *D sky130_fd_sc_hd__mux2_1
*CAP
1 *263:A 0.000265968
2 *235:X 0.000265968
3 *263:A *214:B1 0
4 *263:A *222:B 0
5 *263:A *224:D 0
6 *263:A *235:A1 0.000523559
7 *263:A *251:D 0.000270647
8 *263:A *43:38 0
*RES
1 *235:X *263:A 14.49 
*END

*D_NET *27 0.000106447
*CONN
*I *275:A I *D sky130_fd_sc_hd__dlygate4sd3_1
*I *236:X O *D sky130_fd_sc_hd__mux2_1
*CAP
1 *275:A 5.32236e-05
2 *236:X 5.32236e-05
*RES
1 *236:X *275:A 4.01 
*END

*D_NET *28 0.00117702
*CONN
*I *277:A I *D sky130_fd_sc_hd__dlygate4sd3_1
*I *237:X O *D sky130_fd_sc_hd__mux2_1
*CAP
1 *277:A 0.000150514
2 *237:X 0.000150514
3 *277:A *236:A0 0.000431328
4 *277:A *236:A1 0
5 *277:A *237:S 0
6 *277:A *43:21 0.000394699
7 *277:A *43:30 4.99619e-05
*RES
1 *237:X *277:A 12.48 
*END

*D_NET *29 0.00846752
*CONN
*I *222:A I *D sky130_fd_sc_hd__nand2_1
*I *225:B1 I *D sky130_fd_sc_hd__o21ai_1
*I *227:B1_N I *D sky130_fd_sc_hd__a21boi_1
*I *218:B1 I *D sky130_fd_sc_hd__o21ai_1
*I *217:A I *D sky130_fd_sc_hd__and3_1
*I *208:B I *D sky130_fd_sc_hd__and2b_1
*I *209:B1_N I *D sky130_fd_sc_hd__a21boi_1
*I *213:A I *D sky130_fd_sc_hd__and3_1
*I *207:Y O *D sky130_fd_sc_hd__nand2b_2
*CAP
1 *222:A 0.000566441
2 *225:B1 0.000120109
3 *227:B1_N 0.000128639
4 *218:B1 0
5 *217:A 0
6 *208:B 3.61979e-05
7 *209:B1_N 0
8 *213:A 0.000301554
9 *207:Y 0
10 *29:67 0.000368422
11 *29:28 0.000654889
12 *29:26 0.000537563
13 *29:22 0.000609984
14 *29:14 0.000873223
15 *29:6 0.000530944
16 *29:4 0.000566441
17 *213:A *279:A 4.99619e-05
18 *213:A *48:37 0
19 *222:A *223:B 0.000271715
20 *222:A *224:A 0.000120655
21 *222:A *242:CLK 8.53113e-06
22 *222:A *38:10 0.000111096
23 *222:A *46:33 0.000384407
24 *222:A *46:65 0.000183043
25 *222:A *83:8 4.66108e-05
26 *225:B1 *223:A 4.23502e-06
27 *225:B1 *227:A1 8.65961e-05
28 *225:B1 *227:A2 4.66108e-05
29 *225:B1 *228:A2 4.66108e-05
30 *225:B1 *285:A 0
31 *225:B1 *40:19 6.26955e-05
32 *227:B1_N *228:B1 1.08758e-05
33 *227:B1_N *285:A 0
34 *227:B1_N *55:14 0
35 *29:14 *207:B 3.09164e-05
36 *29:14 *218:A1 7.01479e-05
37 *29:14 *219:A1 2.0514e-05
38 *29:14 *223:B 0.000352161
39 *29:14 *224:B 0.000254651
40 *29:14 *52:10 9.37731e-05
41 *29:22 *218:A2 8.97642e-05
42 *29:22 *223:B 0
43 *29:22 *34:68 0
44 *29:26 *210:B1 0
45 *29:28 *48:27 0
46 *29:28 *48:37 0
47 *29:67 *207:B 2.92496e-05
48 *29:67 *223:A 2.38115e-05
49 *29:67 *224:B 0.000138279
50 *29:67 *229:A_N 0.000149971
51 *29:67 *38:10 0
52 *29:67 *40:19 1.50624e-05
53 *29:67 *55:14 0
54 *29:67 *55:18 0
55 counter_out[6] *227:B1_N 5.07419e-05
56 *238:D *29:28 0.000136909
57 *239:D *29:26 0
58 *239:D *29:28 0
59 *244:D *29:14 0.000170323
60 *267:A *29:22 0.000113191
*RES
1 *207:Y *29:4 1.6 
2 *29:4 *29:6 2 
3 *29:6 *29:14 11.57 
4 *29:14 *29:22 12.145 
5 *29:22 *29:26 4.145 
6 *29:26 *29:28 6.735 
7 *29:28 *213:A 8.175 
8 *29:28 *209:B1_N 3.6 
9 *29:26 *208:B 4.05 
10 *29:22 *217:A 1.6 
11 *29:14 *218:B1 1.6 
12 *29:6 *29:67 3.2925 
13 *29:67 *227:B1_N 5.9325 
14 *29:67 *225:B1 6.1875 
15 *29:4 *222:A 17.255 
*END

*D_NET *30 0.00158579
*CONN
*I *210:B1 I *D sky130_fd_sc_hd__o21a_1
*I *209:Y O *D sky130_fd_sc_hd__a21boi_1
*CAP
1 *210:B1 0.000381234
2 *209:Y 0.000381234
3 *210:B1 *209:A1 2.4526e-05
4 *210:B1 *209:A2 2.75145e-05
5 *210:B1 *210:A2 2.87867e-05
6 *210:B1 *47:10 6.73665e-05
7 *210:B1 *47:76 0.000132714
8 *210:B1 *48:27 0.000451256
9 *210:B1 *48:75 0
10 *210:B1 *66:20 5.83121e-06
11 *239:D *210:B1 8.53255e-05
12 *29:26 *210:B1 0
*RES
1 *209:Y *210:B1 16.44 
*END

*D_NET *31 0.000413631
*CONN
*I *213:B I *D sky130_fd_sc_hd__and3_1
*I *211:X O *D sky130_fd_sc_hd__a21o_1
*CAP
1 *213:B 0.000138545
2 *211:X 0.000138545
3 *213:B *48:37 8.82557e-05
4 *240:D *213:B 4.82863e-05
*RES
1 *211:X *213:B 5.03 
*END

*D_NET *32 0.00172772
*CONN
*I *213:C I *D sky130_fd_sc_hd__and3_1
*I *212:Y O *D sky130_fd_sc_hd__nand3_1
*CAP
1 *213:C 0.00035252
2 *212:Y 0.00035252
3 *213:C *241:CLK 0.000249921
4 *213:C *279:A 0
5 *213:C *47:10 4.03082e-05
6 *213:C *47:33 7.80594e-05
7 *213:C *47:76 0.000112963
8 *213:C *48:10 7.23602e-05
9 *213:C *48:37 8.8592e-05
10 *240:D *213:C 0.000286356
11 *255:A *213:C 9.41173e-05
*RES
1 *212:Y *213:C 16.575 
*END

*D_NET *33 0.00250993
*CONN
*I *217:B I *D sky130_fd_sc_hd__and3_1
*I *214:X O *D sky130_fd_sc_hd__a31o_1
*CAP
1 *217:B 0.000412303
2 *214:X 0.000412303
3 *217:B *210:A1 0.000158066
4 *217:B *216:A 5.04569e-05
5 *217:B *217:C 0.000586233
6 *217:B *234:A0 1.1392e-05
7 *217:B *256:A 0.000220452
8 *217:B *257:A 7.23602e-05
9 *217:B *270:A 0.00017519
10 *217:B *34:10 5.84698e-05
11 *217:B *34:20 0.000151346
12 *241:D *217:B 0.00020136
*RES
1 *214:X *217:B 19.5 
*END

*D_NET *34 0.0087537
*CONN
*I *216:A I *D sky130_fd_sc_hd__inv_2
*I *220:A2 I *D sky130_fd_sc_hd__a21o_1
*I *219:A2 I *D sky130_fd_sc_hd__a21oi_1
*I *218:A2 I *D sky130_fd_sc_hd__o21ai_1
*I *224:D I *D sky130_fd_sc_hd__and4_1
*I *221:C I *D sky130_fd_sc_hd__and3_1
*I *215:X O *D sky130_fd_sc_hd__and4_2
*CAP
1 *216:A 0.000327278
2 *220:A2 2.08101e-05
3 *219:A2 0
4 *218:A2 0.00029462
5 *224:D 0.000564837
6 *221:C 0.000143808
7 *215:X 0
8 *34:68 0.000605724
9 *34:54 0.000508881
10 *34:20 0.000854423
11 *34:10 0.000512488
12 *34:4 0.00051702
13 *216:A *214:A3 0
14 *216:A *215:A 0
15 *216:A *217:C 0.000131799
16 *216:A *256:A 0.000344586
17 *216:A *270:A 9.76407e-06
18 *216:A *49:31 0.000220841
19 *221:C *234:A0 0.000121541
20 *221:C *51:68 2.59784e-05
21 *224:D *222:B 6.10014e-05
22 *224:D *224:A 2.49909e-05
23 *224:D *224:B 2.17353e-05
24 *224:D *224:C 5.40596e-05
25 *224:D *225:A1 4.66606e-05
26 *224:D *234:A0 0.000187468
27 *224:D *235:A1 0
28 *224:D *235:S 2.66852e-05
29 *224:D *236:A0 9.76407e-06
30 *224:D *257:A 0
31 *224:D *43:6 0.000454223
32 *224:D *53:12 0.00030705
33 *224:D *54:10 0.000271327
34 *224:D *71:18 0.000113872
35 *34:10 *217:C 4.89295e-05
36 *34:10 *256:A 2.75092e-05
37 *34:20 *214:A1 0.000201128
38 *34:20 *214:A2 0.00019683
39 *34:20 *222:B 0
40 *34:20 *257:A 6.26489e-05
41 *34:20 *48:75 0.000193905
42 *34:54 *220:A1 0.0001138
43 *34:54 *222:B 0.000348991
44 *34:54 *256:A 1.50383e-05
45 *34:54 *48:75 0.000309012
46 *34:68 *219:B1 0
47 *34:68 *220:B1 0
48 *34:68 *242:CLK 5.98942e-05
49 *34:68 *242:D 1.52184e-05
50 *34:68 *52:10 0
51 *217:B *216:A 5.04569e-05
52 *217:B *34:10 5.84698e-05
53 *217:B *34:20 0.000151346
54 *263:A *224:D 0
55 *267:A *218:A2 2.75229e-05
56 *267:A *34:68 0
57 *29:22 *218:A2 8.97642e-05
58 *29:22 *34:68 0
*RES
1 *215:X *34:4 1.6 
2 *34:4 *34:10 4.61 
3 *34:10 *34:20 10.995 
4 *34:20 *221:C 3.49 
5 *34:20 *224:D 23.535 
6 *34:10 *34:54 7.55 
7 *34:54 *34:68 8.8 
8 *34:68 *218:A2 10.355 
9 *34:68 *219:A2 1.6 
10 *34:54 *220:A2 1.96 
11 *34:4 *216:A 13.13 
*END

*D_NET *35 0.00255813
*CONN
*I *217:C I *D sky130_fd_sc_hd__and3_1
*I *216:Y O *D sky130_fd_sc_hd__inv_2
*CAP
1 *217:C 0.000639885
2 *216:Y 0.000639885
3 *217:C *256:A 0.000358257
4 *217:C *49:18 0.000153139
5 *216:A *217:C 0.000131799
6 *217:B *217:C 0.000586233
7 *34:10 *217:C 4.89295e-05
*RES
1 *216:Y *217:C 20.025 
*END

*D_NET *36 0.0005131
*CONN
*I *219:B1 I *D sky130_fd_sc_hd__a21oi_1
*I *218:Y O *D sky130_fd_sc_hd__o21ai_1
*CAP
1 *219:B1 0.000129179
2 *218:Y 0.000129179
3 *219:B1 *218:A1 0.000120655
4 *219:B1 *219:A1 3.86529e-05
5 *219:B1 *242:D 0
6 *267:A *219:B1 9.5433e-05
7 *34:68 *219:B1 0
*RES
1 *218:Y *219:B1 9.465 
*END

*D_NET *37 0.00210214
*CONN
*I *222:B I *D sky130_fd_sc_hd__nand2_1
*I *220:X O *D sky130_fd_sc_hd__a21o_1
*CAP
1 *222:B 0.000551913
2 *220:X 0.000551913
3 *222:B *214:B1 7.63125e-05
4 *222:B *215:B 0.00012752
5 *222:B *251:D 0
6 *222:B *44:8 0.000262805
7 *222:B *48:75 0.00012168
8 *224:D *222:B 6.10014e-05
9 *263:A *222:B 0
10 *34:20 *222:B 0
11 *34:54 *222:B 0.000348991
*RES
1 *220:X *222:B 18.225 
*END

*D_NET *38 0.00356279
*CONN
*I *225:A2 I *D sky130_fd_sc_hd__o21ai_1
*I *223:A I *D sky130_fd_sc_hd__nor2_1
*I *221:X O *D sky130_fd_sc_hd__and3_1
*CAP
1 *225:A2 0.000145216
2 *223:A 0.000519888
3 *221:X 0.000375555
4 *38:10 0.00104066
5 *223:A *229:A_N 2.75229e-05
6 *223:A *40:19 8.53113e-06
7 *223:A *43:6 6.3124e-06
8 *225:A2 *225:A1 2.75407e-05
9 *225:A2 *226:B 0.000104612
10 *225:A2 *40:19 0.000107739
11 *38:10 *224:A 0.000402743
12 *38:10 *225:A1 6.15913e-05
13 *38:10 *226:B 2.10433e-05
14 *38:10 *229:A_N 1.45134e-05
15 *38:10 *242:CLK 0.000162778
16 *38:10 *46:65 0.000172151
17 *38:10 *51:8 2.39426e-05
18 *38:10 *51:21 0.000116158
19 *38:10 *51:68 1.52418e-05
20 *222:A *38:10 0.000111096
21 *225:B1 *223:A 4.23502e-06
22 *243:D *223:A 1.40133e-05
23 *244:D *38:10 5.58982e-05
24 *245:D *38:10 0
25 *29:67 *223:A 2.38115e-05
26 *29:67 *38:10 0
*RES
1 *221:X *38:10 12.9675 
2 *38:10 *223:A 10.2975 
3 *38:10 *225:A2 6.2625 
*END

*D_NET *39 0.00326098
*CONN
*I *223:B I *D sky130_fd_sc_hd__nor2_1
*I *222:Y O *D sky130_fd_sc_hd__nand2_1
*CAP
1 *223:B 0.000931422
2 *222:Y 0.000931422
3 *223:B *218:A1 8.65439e-05
4 *223:B *219:A1 0.00012657
5 *223:B *224:B 0
6 *223:B *242:D 2.05056e-05
7 *223:B *244:CLK 2.28686e-05
8 *223:B *46:33 8.65006e-05
9 *223:B *51:25 8.40213e-05
10 *223:B *52:10 0
11 *223:B *55:18 1.94723e-05
12 *222:A *223:B 0.000271715
13 *243:D *223:B 0.000314452
14 *244:D *223:B 1.33285e-05
15 *29:14 *223:B 0.000352161
16 *29:22 *223:B 0
*RES
1 *222:Y *223:B 25.32 
*END

*D_NET *40 0.00152969
*CONN
*I *228:A2 I *D sky130_fd_sc_hd__o21a_1
*I *227:A2 I *D sky130_fd_sc_hd__a21boi_1
*I *226:A I *D sky130_fd_sc_hd__nor2_1
*I *224:X O *D sky130_fd_sc_hd__and4_1
*CAP
1 *228:A2 9.33536e-05
2 *227:A2 2.15559e-05
3 *226:A 3.98918e-05
4 *224:X 0.000101107
5 *40:19 0.000163012
6 *40:6 0.000189101
7 *227:A2 *227:A1 2.16833e-05
8 *227:A2 *228:B1 8.40213e-05
9 *228:A2 *227:A1 0.000289722
10 *228:A2 *228:B1 0.000180684
11 *40:6 *43:6 3.81908e-06
12 *223:A *40:19 8.53113e-06
13 *225:A2 *40:19 0.000107739
14 *225:B1 *227:A2 4.66108e-05
15 *225:B1 *228:A2 4.66108e-05
16 *225:B1 *40:19 6.26955e-05
17 *244:D *40:6 2.61299e-05
18 *245:D *228:A2 2.83579e-05
19 *29:67 *40:19 1.50624e-05
*RES
1 *224:X *40:6 2.74 
2 *40:6 *226:A 2.215 
3 *40:6 *40:19 5.38 
4 *40:19 *227:A2 2.395 
5 *40:19 *228:A2 5.275 
*END

*D_NET *41 0.00039239
*CONN
*I *226:B I *D sky130_fd_sc_hd__nor2_1
*I *225:Y O *D sky130_fd_sc_hd__o21ai_1
*CAP
1 *226:B 7.8628e-05
2 *225:Y 7.8628e-05
3 *226:B *225:A1 6.28687e-05
4 *226:B *228:B1 4.66108e-05
5 *225:A2 *226:B 0.000104612
6 *38:10 *226:B 2.10433e-05
*RES
1 *225:Y *226:B 9.03 
*END

*D_NET *42 0.000887054
*CONN
*I *228:B1 I *D sky130_fd_sc_hd__o21a_1
*I *227:Y O *D sky130_fd_sc_hd__a21boi_1
*CAP
1 *228:B1 0.000227276
2 *227:Y 0.000227276
3 *228:B1 *227:A1 1.61831e-05
4 *228:B1 *55:14 0
5 counter_out[6] *228:B1 7.68414e-06
6 *226:B *228:B1 4.66108e-05
7 *227:A2 *228:B1 8.40213e-05
8 *227:B1_N *228:B1 1.08758e-05
9 *228:A2 *228:B1 0.000180684
10 *245:D *228:B1 8.64421e-05
*RES
1 *227:Y *228:B1 7.82 
*END

*D_NET *43 0.010024
*CONN
*I *237:S I *D sky130_fd_sc_hd__mux2_1
*I *234:S I *D sky130_fd_sc_hd__mux2_1
*I *233:S I *D sky130_fd_sc_hd__mux2_1
*I *232:S I *D sky130_fd_sc_hd__mux2_1
*I *230:S I *D sky130_fd_sc_hd__mux2_1
*I *231:S I *D sky130_fd_sc_hd__mux2_1
*I *236:S I *D sky130_fd_sc_hd__mux2_1
*I *235:S I *D sky130_fd_sc_hd__mux2_1
*I *229:Y O *D sky130_fd_sc_hd__nand2b_4
*CAP
1 *237:S 0.000179795
2 *234:S 0.0001579
3 *233:S 0
4 *232:S 0
5 *230:S 0.000211546
6 *231:S 7.98926e-05
7 *236:S 0
8 *235:S 0.000173262
9 *229:Y 0.000688414
10 *43:48 0.000393991
11 *43:44 0.000642949
12 *43:38 0.00087858
13 *43:32 0.000865611
14 *43:30 0.000666794
15 *43:21 0.000300034
16 *43:6 0.00104424
17 *230:S *230:A0 0.000420335
18 *231:S *230:A0 0.000275548
19 *231:S *264:A 8.65905e-05
20 *235:S *235:A1 0
21 *235:S *253:D 0
22 *235:S *46:10 0
23 *235:S *46:12 0
24 *235:S *54:10 0.000100308
25 *235:S *81:10 7.06865e-05
26 *237:S *237:A1 5.83121e-06
27 *237:S *276:A 4.82919e-05
28 *237:S *82:12 0
29 *43:6 *229:A_N 1.19928e-05
30 *43:6 *236:A0 1.96634e-05
31 *43:30 *236:A0 4.60584e-05
32 *43:32 *253:D 0
33 *43:32 *46:10 0
34 *43:32 *46:12 0
35 *43:32 *82:12 0
36 *43:38 *235:A1 0
37 *43:38 *250:CLK 0
38 *43:38 *250:D 7.53115e-05
39 *43:38 *283:A 0
40 *43:38 *46:12 0
41 *43:38 *80:12 0.000290664
42 *43:44 *233:A0 1.19928e-05
43 *43:44 *233:A1 0.000366389
44 *43:44 *246:CLK 0.000155928
45 *43:44 *249:CLK 7.56945e-05
46 *43:44 *249:D 7.00066e-05
47 *43:44 *264:A 0
48 *43:44 *45:10 5.4256e-05
49 *43:44 *45:89 2.24336e-05
50 *43:48 *264:A 0
51 counter_out[5] *43:32 0
52 counter_out[5] *43:38 0
53 *223:A *43:6 6.3124e-06
54 *224:D *235:S 2.66852e-05
55 *224:D *43:6 0.000454223
56 *244:D *43:6 0.000122337
57 *246:D *43:44 0
58 *246:D *43:48 0
59 *247:D *43:44 0.000147397
60 *247:D *43:48 0.000116158
61 *263:A *43:38 0
62 *271:A *43:44 0.000160635
63 *273:A *234:S 5.07419e-05
64 *273:A *43:38 0
65 *277:A *237:S 0
66 *277:A *43:21 0.000394699
67 *277:A *43:30 4.99619e-05
68 *40:6 *43:6 3.81908e-06
*RES
1 *229:Y *43:6 9.985 
2 *43:6 *235:S 9.275 
3 *43:6 *43:21 4.17 
4 *43:21 *236:S 1.6 
5 *43:21 *43:30 4.175 
6 *43:30 *43:32 5.97 
7 *43:32 *43:38 8.93 
8 *43:38 *43:44 14.165 
9 *43:44 *43:48 3.89 
10 *43:48 *231:S 4.12 
11 *43:48 *230:S 6.91 
12 *43:44 *232:S 3.6 
13 *43:38 *233:S 1.6 
14 *43:32 *234:S 6.12 
15 *43:30 *237:S 6.45 
*END

*D_NET *44 0.00330651
*CONN
*I *257:A I *D sky130_fd_sc_hd__clkbuf_16
*I *256:A I *D sky130_fd_sc_hd__clkbuf_16
*I *255:X O *D sky130_fd_sc_hd__clkbuf_16
*CAP
1 *257:A 0.000435225
2 *256:A 0.000274243
3 *255:X 0.000202697
4 *44:8 0.000912165
5 *256:A *220:A1 0
6 *257:A *220:A1 0
7 *257:A *242:CLK 0
8 *257:A *51:21 0
9 *257:A *53:12 0
10 *216:A *256:A 0.000344586
11 *217:B *256:A 0.000220452
12 *217:B *257:A 7.23602e-05
13 *217:C *256:A 0.000358257
14 *222:B *44:8 0.000262805
15 *224:D *257:A 0
16 *245:D *257:A 0.000118527
17 *34:10 *256:A 2.75092e-05
18 *34:20 *257:A 6.26489e-05
19 *34:54 *256:A 1.50383e-05
*RES
1 *255:X *44:8 6.12 
2 *44:8 *256:A 11.22 
3 *44:8 *257:A 10.845 
*END

*D_NET *45 0.00609836
*CONN
*I *249:CLK I *D sky130_fd_sc_hd__dfxtp_1
*I *248:CLK I *D sky130_fd_sc_hd__dfxtp_1
*I *246:CLK I *D sky130_fd_sc_hd__dfxtp_1
*I *247:CLK I *D sky130_fd_sc_hd__dfxtp_1
*I *258:A I *D sky130_fd_sc_hd__clkbuf_4
*I *241:CLK I *D sky130_fd_sc_hd__dfxtp_1
*I *239:CLK I *D sky130_fd_sc_hd__dfxtp_1
*I *238:CLK I *D sky130_fd_sc_hd__dfxtp_1
*I *240:CLK I *D sky130_fd_sc_hd__dfxtp_1
*I *256:X O *D sky130_fd_sc_hd__clkbuf_16
*CAP
1 *249:CLK 0.00013041
2 *248:CLK 0.000112943
3 *246:CLK 0.000132162
4 *247:CLK 0
5 *258:A 0
6 *241:CLK 0.000181563
7 *239:CLK 0.00012899
8 *238:CLK 2.61909e-05
9 *240:CLK 0
10 *256:X 0
11 *45:89 0.000256845
12 *45:67 0.000164896
13 *45:27 0.000747633
14 *45:23 0.000809566
15 *45:16 0.000319286
16 *45:12 0.000324767
17 *45:10 0.000131763
18 *45:6 7.14888e-05
19 *241:CLK *212:B 5.83121e-06
20 *241:CLK *47:106 1.08758e-05
21 *241:CLK *48:10 1.1561e-05
22 *241:CLK *48:75 2.86623e-05
23 *246:CLK *230:A1 5.34747e-05
24 *246:CLK *66:20 0.0001249
25 *246:CLK *76:8 1.56428e-05
26 *248:CLK *248:D 0.000275553
27 *249:CLK *270:A 6.97202e-05
28 *249:CLK *280:A 9.58766e-05
29 *45:10 *264:A 4.20983e-05
30 *45:10 *280:A 3.86607e-05
31 *45:12 *260:A 6.52265e-05
32 *45:12 *76:8 3.1835e-05
33 *45:16 *260:A 0.000260847
34 *45:16 *49:8 7.65948e-05
35 *45:67 *260:A 3.77036e-05
36 *45:67 *76:8 4.80182e-05
37 *45:89 *280:A 2.68721e-05
38 counter_out[1] *249:CLK 8.57024e-05
39 *213:C *241:CLK 0.000249921
40 *238:D *238:CLK 3.05295e-05
41 *238:D *239:CLK 6.36578e-05
42 *238:D *45:27 1.55468e-05
43 *240:D *45:16 0.00011085
44 *240:D *45:27 1.90762e-05
45 *241:D *241:CLK 0.000114427
46 *247:D *246:CLK 3.57349e-05
47 *247:D *45:67 4.66108e-05
48 *255:A *241:CLK 0.000159535
49 *43:44 *246:CLK 0.000155928
50 *43:44 *249:CLK 7.56945e-05
51 *43:44 *45:10 5.4256e-05
52 *43:44 *45:89 2.24336e-05
*RES
1 *256:X *45:6 3.6 
2 *45:6 *45:10 3.635 
3 *45:10 *45:12 1.14 
4 *45:12 *45:16 6.33 
5 *45:16 *240:CLK 1.6 
6 *45:16 *45:23 0.615 
7 *45:23 *45:27 8.315 
8 *45:27 *238:CLK 4.215 
9 *45:27 *239:CLK 5.775 
10 *45:23 *241:CLK 10.415 
11 *45:12 *258:A 1.6 
12 *45:10 *45:67 1.14 
13 *45:67 *247:CLK 1.6 
14 *45:67 *246:CLK 9.08 
15 *45:6 *45:89 0.615 
16 *45:89 *248:CLK 6.12 
17 *45:89 *249:CLK 7.44 
*END

*D_NET *46 0.0075207
*CONN
*I *252:CLK I *D sky130_fd_sc_hd__dfxtp_1
*I *253:CLK I *D sky130_fd_sc_hd__dfxtp_1
*I *251:CLK I *D sky130_fd_sc_hd__dfxtp_1
*I *254:CLK I *D sky130_fd_sc_hd__dfxtp_1
*I *243:CLK I *D sky130_fd_sc_hd__dfxtp_1
*I *245:CLK I *D sky130_fd_sc_hd__dfxtp_1
*I *242:CLK I *D sky130_fd_sc_hd__dfxtp_1
*I *244:CLK I *D sky130_fd_sc_hd__dfxtp_1
*I *250:CLK I *D sky130_fd_sc_hd__dfxtp_1
*I *257:X O *D sky130_fd_sc_hd__clkbuf_16
*CAP
1 *252:CLK 0.000375432
2 *253:CLK 0
3 *251:CLK 0
4 *254:CLK 0.000301407
5 *243:CLK 0.000135445
6 *245:CLK 0
7 *242:CLK 0.000395153
8 *244:CLK 1.7218e-05
9 *250:CLK 8.58379e-05
10 *257:X 0
11 *46:74 0.000784017
12 *46:65 0.000401616
13 *46:42 0.000449605
14 *46:33 0.000434943
15 *46:25 0.000586557
16 *46:12 0.000355802
17 *46:10 0.000214857
18 *46:4 0.000489157
19 *242:CLK *221:B 4.87317e-05
20 *242:CLK *242:D 1.43717e-05
21 *242:CLK *51:8 3.45679e-05
22 *242:CLK *51:21 1.15688e-05