*SPEF "ieee 1481-1999"
*DESIGN "dig"
*DATE "15:58:19 Sunday April 13, 2025"
*VENDOR "The OpenROAD Project"
*PROGRAM "OpenROAD"
*VERSION "edf00dff99f6c40d67a30c0e22a8191c5d2ed9d6"
*DESIGN_FLOW "NAME_SCOPE LOCAL" "PIN_CAP NONE"
*DIVIDER /
*DELIMITER :
*BUS_DELIMITER []
*T_UNIT 1 NS
*C_UNIT 1 PF
*R_UNIT 1 OHM
*L_UNIT 1 HENRY

*NAME_MAP
*3 clk
*4 counter_out[0]
*5 counter_out[1]
*6 counter_out[2]
*7 counter_out[3]
*8 counter_out[4]
*9 counter_out[5]
*10 counter_out[6]
*11 counter_out[7]
*12 trigger
*13 _00_
*14 _01_
*15 _02_
*16 _03_
*17 _04_
*18 _05_
*19 _06_
*20 _07_
*21 _08_
*22 _09_
*23 _10_
*24 _11_
*25 _12_
*26 _13_
*27 _14_
*28 _15_
*29 _16_
*30 _17_
*31 _18_
*32 _19_
*33 _20_
*34 _21_
*35 _22_
*36 _23_
*37 _24_
*38 _25_
*39 _26_
*40 _27_
*41 _28_
*42 _29_
*43 _30_
*44 clknet_0_clk
*45 clknet_1_0__leaf_clk
*46 clknet_1_1__leaf_clk
*47 counter\[0\]
*48 counter\[1\]
*49 counter\[2\]
*50 counter\[3\]
*51 counter\[4\]
*52 counter\[5\]
*53 counter\[6\]
*54 counter\[7\]
*55 net1
*56 net10
*57 net11
*58 net12
*59 net13
*60 net14
*61 net15
*62 net16
*63 net17
*64 net18
*65 net19
*66 net2
*67 net20
*68 net21
*69 net22
*70 net23
*71 net24
*72 net25
*73 net26
*74 net3
*75 net4
*76 net5
*77 net6
*78 net7
*79 net8
*80 net9
*81 trigger_prev
*82 FILLER_0_11
*83 FILLER_0_19
*84 FILLER_0_27
*85 FILLER_0_29
*86 FILLER_0_3
*87 FILLER_0_37
*88 FILLER_10_11
*89 FILLER_10_19
*90 FILLER_10_27
*91 FILLER_10_29
*92 FILLER_10_3
*93 FILLER_11_11
*94 FILLER_11_19
*95 FILLER_11_3
*96 FILLER_12_29
*97 FILLER_12_35
*98 FILLER_13_3
*99 FILLER_13_37
*100 FILLER_13_43
*101 FILLER_14_11
*102 FILLER_14_29
*103 FILLER_14_3
*104 FILLER_14_41
*105 FILLER_15_11
*106 FILLER_15_3
*107 FILLER_16_23
*108 FILLER_16_27
*109 FILLER_16_29
*110 FILLER_16_3
*111 FILLER_17_15
*112 FILLER_17_23
*113 FILLER_17_3
*114 FILLER_17_43
*115 FILLER_17_9
*116 FILLER_18_24
*117 FILLER_18_29
*118 FILLER_18_3
*119 FILLER_18_38
*120 FILLER_19_15
*121 FILLER_19_3
*122 FILLER_1_11
*123 FILLER_1_19
*124 FILLER_1_27
*125 FILLER_1_3
*126 FILLER_1_35
*127 FILLER_1_43
*128 FILLER_20_11
*129 FILLER_20_15
*130 FILLER_20_24
*131 FILLER_20_3
*132 FILLER_20_38
*133 FILLER_21_11
*134 FILLER_21_19
*135 FILLER_21_27
*136 FILLER_21_3
*137 FILLER_22_11
*138 FILLER_22_29
*139 FILLER_22_3
*140 FILLER_22_41
*141 FILLER_23_3
*142 FILLER_23_37
*143 FILLER_23_43
*144 FILLER_23_7
*145 FILLER_24_19
*146 FILLER_24_27
*147 FILLER_24_29
*148 FILLER_24_40
*149 FILLER_25_13
*150 FILLER_25_21
*151 FILLER_25_29
*152 FILLER_25_3
*153 FILLER_25_37
*154 FILLER_25_43
*155 FILLER_25_9
*156 FILLER_26_11
*157 FILLER_26_17
*158 FILLER_26_25
*159 FILLER_26_3
*160 FILLER_26_37
*161 FILLER_27_11
*162 FILLER_27_19
*163 FILLER_27_3
*164 FILLER_27_37
*165 FILLER_27_43
*166 FILLER_28_23
*167 FILLER_28_27
*168 FILLER_28_29
*169 FILLER_28_42
*170 FILLER_28_6
*171 FILLER_29_19
*172 FILLER_2_11
*173 FILLER_2_19
*174 FILLER_2_27
*175 FILLER_2_29
*176 FILLER_2_3
*177 FILLER_2_37
*178 FILLER_2_43
*179 FILLER_30_15
*180 FILLER_30_23
*181 FILLER_30_27
*182 FILLER_30_29
*183 FILLER_30_3
*184 FILLER_30_40
*185 FILLER_30_7
*186 FILLER_31_11
*187 FILLER_31_17
*188 FILLER_31_24
*189 FILLER_31_3
*190 FILLER_32_11
*191 FILLER_32_29
*192 FILLER_32_3
*193 FILLER_32_41
*194 FILLER_33_11
*195 FILLER_33_3
*196 FILLER_34_11
*197 FILLER_34_19
*198 FILLER_34_27
*199 FILLER_34_29
*200 FILLER_34_3
*201 FILLER_34_35
*202 FILLER_35_11
*203 FILLER_35_19
*204 FILLER_35_27
*205 FILLER_35_29
*206 FILLER_35_3
*207 FILLER_35_37
*208 FILLER_3_11
*209 FILLER_3_19
*210 FILLER_3_27
*211 FILLER_3_3
*212 FILLER_3_35
*213 FILLER_3_39
*214 FILLER_4_11
*215 FILLER_4_29
*216 FILLER_4_3
*217 FILLER_4_33
*218 FILLER_4_43
*219 FILLER_5_11
*220 FILLER_5_17
*221 FILLER_5_27
*222 FILLER_5_3
*223 FILLER_6_11
*224 FILLER_6_19
*225 FILLER_6_29
*226 FILLER_6_3
*227 FILLER_6_35
*228 FILLER_7_16
*229 FILLER_7_24
*230 FILLER_7_3
*231 FILLER_7_41
*232 FILLER_7_9
*233 FILLER_8_25
*234 FILLER_8_29
*235 FILLER_8_37
*236 FILLER_8_43
*237 FILLER_9_11
*238 FILLER_9_19
*239 FILLER_9_27
*240 FILLER_9_3
*241 FILLER_9_35
*242 FILLER_9_43
*243 PHY_EDGE_ROW_0_Left_36
*244 PHY_EDGE_ROW_0_Right_0
*245 PHY_EDGE_ROW_10_Left_46
*246 PHY_EDGE_ROW_10_Right_10
*247 PHY_EDGE_ROW_11_Left_47
*248 PHY_EDGE_ROW_11_Right_11
*249 PHY_EDGE_ROW_12_Left_48
*250 PHY_EDGE_ROW_12_Right_12
*251 PHY_EDGE_ROW_13_Left_49
*252 PHY_EDGE_ROW_13_Right_13
*253 PHY_EDGE_ROW_14_Left_50
*254 PHY_EDGE_ROW_14_Right_14
*255 PHY_EDGE_ROW_15_Left_51
*256 PHY_EDGE_ROW_15_Right_15
*257 PHY_EDGE_ROW_16_Left_52
*258 PHY_EDGE_ROW_16_Right_16
*259 PHY_EDGE_ROW_17_Left_53
*260 PHY_EDGE_ROW_17_Right_17
*261 PHY_EDGE_ROW_18_Left_54
*262 PHY_EDGE_ROW_18_Right_18
*263 PHY_EDGE_ROW_19_Left_55
*264 PHY_EDGE_ROW_19_Right_19
*265 PHY_EDGE_ROW_1_Left_37
*266 PHY_EDGE_ROW_1_Right_1
*267 PHY_EDGE_ROW_20_Left_56
*268 PHY_EDGE_ROW_20_Right_20
*269 PHY_EDGE_ROW_21_Left_57
*270 PHY_EDGE_ROW_21_Right_21
*271 PHY_EDGE_ROW_22_Left_58
*272 PHY_EDGE_ROW_22_Right_22
*273 PHY_EDGE_ROW_23_Left_59
*274 PHY_EDGE_ROW_23_Right_23
*275 PHY_EDGE_ROW_24_Left_60
*276 PHY_EDGE_ROW_24_Right_24
*277 PHY_EDGE_ROW_25_Left_61
*278 PHY_EDGE_ROW_25_Right_25
*279 PHY_EDGE_ROW_26_Left_62
*280 PHY_EDGE_ROW_26_Right_26
*281 PHY_EDGE_ROW_27_Left_63
*282 PHY_EDGE_ROW_27_Right_27
*283 PHY_EDGE_ROW_28_Left_64
*284 PHY_EDGE_ROW_28_Right_28
*285 PHY_EDGE_ROW_29_Left_65
*286 PHY_EDGE_ROW_29_Right_29
*287 PHY_EDGE_ROW_2_Left_38
*288 PHY_EDGE_ROW_2_Right_2
*289 PHY_EDGE_ROW_30_Left_66
*290 PHY_EDGE_ROW_30_Right_30
*291 PHY_EDGE_ROW_31_Left_67
*292 PHY_EDGE_ROW_31_Right_31
*293 PHY_EDGE_ROW_32_Left_68
*294 PHY_EDGE_ROW_32_Right_32
*295 PHY_EDGE_ROW_33_Left_69
*296 PHY_EDGE_ROW_33_Right_33
*297 PHY_EDGE_ROW_34_Left_70
*298 PHY_EDGE_ROW_34_Right_34
*299 PHY_EDGE_ROW_35_Left_71
*300 PHY_EDGE_ROW_35_Right_35
*301 PHY_EDGE_ROW_3_Left_39
*302 PHY_EDGE_ROW_3_Right_3
*303 PHY_EDGE_ROW_4_Left_40
*304 PHY_EDGE_ROW_4_Right_4
*305 PHY_EDGE_ROW_5_Left_41
*306 PHY_EDGE_ROW_5_Right_5
*307 PHY_EDGE_ROW_6_Left_42
*308 PHY_EDGE_ROW_6_Right_6
*309 PHY_EDGE_ROW_7_Left_43
*310 PHY_EDGE_ROW_7_Right_7
*311 PHY_EDGE_ROW_8_Left_44
*312 PHY_EDGE_ROW_8_Right_8
*313 PHY_EDGE_ROW_9_Left_45
*314 PHY_EDGE_ROW_9_Right_9
*315 TAP_TAPCELL_ROW_0_72
*316 TAP_TAPCELL_ROW_10_77
*317 TAP_TAPCELL_ROW_12_78
*318 TAP_TAPCELL_ROW_14_79
*319 TAP_TAPCELL_ROW_16_80
*320 TAP_TAPCELL_ROW_18_81
*321 TAP_TAPCELL_ROW_20_82
*322 TAP_TAPCELL_ROW_22_83
*323 TAP_TAPCELL_ROW_24_84
*324 TAP_TAPCELL_ROW_26_85
*325 TAP_TAPCELL_ROW_28_86
*326 TAP_TAPCELL_ROW_2_73
*327 TAP_TAPCELL_ROW_30_87
*328 TAP_TAPCELL_ROW_32_88
*329 TAP_TAPCELL_ROW_34_89
*330 TAP_TAPCELL_ROW_35_90
*331 TAP_TAPCELL_ROW_4_74
*332 TAP_TAPCELL_ROW_6_75
*333 TAP_TAPCELL_ROW_8_76
*334 _31_
*335 _32_
*336 _33_
*337 _34_
*338 _35_
*339 _36_
*340 _37_
*341 _38_
*342 _39_
*343 _40_
*344 _41_
*345 _42_
*346 _43_
*347 _44_
*348 _45_
*349 _46_
*350 _47_
*351 _48_
*352 _49_
*353 _50_
*354 _51_
*355 _52_
*356 _53_
*357 _54_
*358 _55_
*359 _56_
*360 _57_
*361 _58_
*362 _59_
*363 _60_
*364 _61_
*365 _62_
*366 _63_
*367 _64_
*368 _65_
*369 _66_
*370 _67_
*371 _68_
*372 _69_
*373 _70_
*374 _71_
*375 _72_
*376 _73_
*377 _74_
*378 _75_
*379 _76_
*380 _77_
*381 _78_
*382 clkbuf_0_clk
*383 clkbuf_1_0__f_clk
*384 clkbuf_1_1__f_clk
*385 clkload0
*386 hold1
*387 hold10
*388 hold11
*389 hold12
*390 hold13
*391 hold14
*392 hold15
*393 hold16
*394 hold17
*395 hold2
*396 hold3
*397 hold4
*398 hold5
*399 hold6
*400 hold7
*401 hold8
*402 hold9
*403 input1
*404 output2
*405 output3
*406 output4
*407 output5
*408 output6
*409 output7
*410 output8
*411 output9

*PORTS
clk I
counter_out[0] O
counter_out[1] O
counter_out[2] O
counter_out[3] O
counter_out[4] O
counter_out[5] O
counter_out[6] O
counter_out[7] O
trigger I

*D_NET *3 0.00541561
*CONN
*P clk I
*I *382:A I *D sky130_fd_sc_hd__clkbuf_16
*CAP
1 clk 0.00190236
2 *382:A 0.00190236
3 *382:A *337:A1 0
4 *382:A *341:A3 0.000137976
5 *382:A *344:B 0
6 *382:A *366:D 0
7 *382:A *368:CLK 0
8 *382:A *369:D 8.97564e-05
9 *382:A *383:A 0.000982564
10 *382:A *384:A 6.92392e-05
11 *382:A *34:29 0
12 *382:A *34:42 0
13 *382:A *45:12 9.37731e-05
14 *382:A *45:34 0.000189912
15 *382:A *45:94 0
16 *382:A *47:38 0
17 *382:A *47:49 0
18 *382:A *47:60 0
19 *382:A *47:73 0
20 *382:A *48:8 4.76659e-05
*RES
1 clk *382:A 32.2581 
*END

*D_NET *4 0.00130353
*CONN
*P counter_out[0] O
*I *404:X O *D sky130_fd_sc_hd__buf_2
*CAP
1 counter_out[0] 0.000615496
2 *404:X 0.000615496
3 counter_out[0] *404:A 7.25404e-05
*RES
1 *404:X counter_out[0] 13.148 
*END

*D_NET *5 0.00110151
*CONN
*P counter_out[1] O
*I *405:X O *D sky130_fd_sc_hd__buf_2
*CAP
1 counter_out[1] 0.000477591
2 *405:X 0.000477591
3 counter_out[1] *404:A 0.000146327
*RES
1 *405:X counter_out[1] 7.83217 
*END

*D_NET *6 0.00101488
*CONN
*P counter_out[2] O
*I *406:X O *D sky130_fd_sc_hd__buf_2
*CAP
1 counter_out[2] 0.000471808
2 *406:X 0.000471808
3 counter_out[2] *406:A 7.12669e-05
*RES
1 *406:X counter_out[2] 9.04257 
*END

*D_NET *7 0.0017895
*CONN
*P counter_out[3] O
*I *407:X O *D sky130_fd_sc_hd__buf_2
*CAP
1 counter_out[3] 0.000723422
2 *407:X 0.000723422
3 counter_out[3] *407:A 0.000180904
4 counter_out[3] *43:16 0
5 counter_out[3] *76:14 0.000161755
*RES
1 *407:X counter_out[3] 12.7539 
*END

*D_NET *8 0.00093301
*CONN
*P counter_out[4] O
*I *408:X O *D sky130_fd_sc_hd__buf_2
*CAP
1 counter_out[4] 0.000460649
2 *408:X 0.000460649
3 counter_out[4] *43:14 1.17114e-05
*RES
1 *408:X counter_out[4] 5.39523 
*END

*D_NET *9 0.000872176
*CONN
*P counter_out[5] O
*I *409:X O *D sky130_fd_sc_hd__buf_2
*CAP
1 counter_out[5] 0.000436088
2 *409:X 0.000436088
*RES
1 *409:X counter_out[5] 6.30217 
*END

*D_NET *10 0.000899225
*CONN
*P counter_out[6] O
*I *410:X O *D sky130_fd_sc_hd__buf_2
*CAP
1 counter_out[6] 0.000442659
2 *410:X 0.000442659
3 counter_out[6] *364:S 1.39062e-05
*RES
1 *410:X counter_out[6] 5.59197 
*END

*D_NET *11 0.00114555
*CONN
*P counter_out[7] O
*I *411:X O *D sky130_fd_sc_hd__buf_2
*CAP
1 counter_out[7] 0.000572774
2 *411:X 0.000572774
*RES
1 *411:X counter_out[7] 8.85217 
*END

*D_NET *12 0.000748984
*CONN
*P trigger I
*I *403:A I *D sky130_fd_sc_hd__buf_1
*CAP
1 trigger 0.000374492
2 *403:A 0.000374492
*RES
1 trigger *403:A 7.8895 
*END

*D_NET *13 0.000594156
*CONN
*I *365:D I *D sky130_fd_sc_hd__dfxtp_1
*I *335:X O *D sky130_fd_sc_hd__and2b_1
*CAP
1 *365:D 0.000226275
2 *335:X 0.000226275
3 *365:D *337:A1 0
4 *365:D *337:B1 0
5 *365:D *48:43 0.000141606
*RES
1 *335:X *365:D 11.0437 
*END

*D_NET *14 0.000371786
*CONN
*I *366:D I *D sky130_fd_sc_hd__dfxtp_1
*I *337:X O *D sky130_fd_sc_hd__o21a_1
*CAP
1 *366:D 0.000185893
2 *337:X 0.000185893
3 *366:D *45:30 0
4 *382:A *366:D 0
*RES
1 *337:X *366:D 9.84375 
*END

*D_NET *15 0.000723761
*CONN
*I *367:D I *D sky130_fd_sc_hd__dfxtp_1
*I *340:X O *D sky130_fd_sc_hd__and3_1
*CAP
1 *367:D 0.000351326
2 *340:X 0.000351326
3 *367:D *49:6 2.11084e-05
*RES
1 *340:X *367:D 8.18375 
*END

*D_NET *16 0.000305027
*CONN
*I *368:D I *D sky130_fd_sc_hd__dfxtp_1
*I *344:X O *D sky130_fd_sc_hd__and3_1
*CAP
1 *368:D 7.19146e-05
2 *344:X 7.19146e-05
3 *368:D *343:A 1.54049e-05
4 *368:D *344:C 0
5 *368:D *368:CLK 4.18603e-06
6 *368:D *34:29 0.000141606
*RES
1 *344:X *368:D 8.97375 
*END

*D_NET *17 0.000827731
*CONN
*I *369:D I *D sky130_fd_sc_hd__dfxtp_1
*I *346:Y O *D sky130_fd_sc_hd__a21oi_1
*CAP
1 *369:D 0.000198413
2 *346:Y 0.000198413
3 *369:D *369:CLK 0.000276725
4 *369:D *34:29 6.4422e-05
5 *382:A *369:D 8.97564e-05
*RES
1 *346:Y *369:D 11.6438 
*END

*D_NET *18 0.000735483
*CONN
*I *370:D I *D sky130_fd_sc_hd__dfxtp_1
*I *350:Y O *D sky130_fd_sc_hd__nor2_1
*CAP
1 *370:D 0.000123228
2 *350:Y 0.000123228
3 *370:D *350:B 0.000162325
4 *370:D *370:CLK 0.000164377
5 *370:D *29:20 0.000162325
*RES
1 *350:Y *370:D 10.6088 
*END

*D_NET *19 0.000247835
*CONN
*I *371:D I *D sky130_fd_sc_hd__dfxtp_1
*I *353:Y O *D sky130_fd_sc_hd__nor2_1
*CAP
1 *371:D 8.34956e-05
2 *353:Y 8.34956e-05
3 *371:D *363:A0 0
4 *371:D *40:23 8.08439e-05
5 *371:D *53:12 0
*RES
1 *353:Y *371:D 8.97375 
*END

*D_NET *20 0.000325231
*CONN
*I *372:D I *D sky130_fd_sc_hd__dfxtp_1
*I *355:X O *D sky130_fd_sc_hd__o21a_1
*CAP
1 *372:D 0.00015543
2 *355:X 0.00015543
3 *372:D *372:CLK 1.43717e-05
*RES
1 *355:X *372:D 9.42375 
*END

*D_NET *21 0.00045603
*CONN
*I *373:D I *D sky130_fd_sc_hd__dfxtp_1
*I *357:X O *D sky130_fd_sc_hd__mux2_1
*CAP
1 *373:D 0.000220767
2 *357:X 0.000220767
3 *373:D *357:A0 0
4 *373:D *358:S 4.82319e-06
5 *373:D *402:A 0
6 *373:D *405:A 9.67355e-06
*RES
1 *357:X *373:D 10.1138 
*END

*D_NET *22 0.000530217
*CONN
*I *374:D I *D sky130_fd_sc_hd__dfxtp_1
*I *358:X O *D sky130_fd_sc_hd__mux2_1
*CAP
1 *374:D 0.000206352
2 *358:X 0.000206352
3 *374:D *358:A0 4.9253e-06
4 *374:D *373:CLK 1.03423e-05
5 *374:D *374:CLK 0.000102245
*RES
1 *358:X *374:D 10.3687 
*END

*D_NET *23 0.000947329
*CONN
*I *395:A I *D sky130_fd_sc_hd__dlygate4sd3_1
*I *359:X O *D sky130_fd_sc_hd__mux2_1
*CAP
1 *395:A 0.000347338
2 *359:X 0.000347338
3 *395:A *359:A0 6.69341e-05
4 *395:A *29:56 6.55328e-05
5 *395:A *47:49 0.000120186
*RES
1 *359:X *395:A 12.135 
*END

*D_NET *24 0.00107972
*CONN
*I *397:A I *D sky130_fd_sc_hd__dlygate4sd3_1
*I *360:X O *D sky130_fd_sc_hd__mux2_1
*CAP
1 *397:A 0.000340589
2 *360:X 0.000340589
3 *397:A *341:A1 7.23533e-05
4 *397:A *360:A0 0.00014305
5 *397:A *34:10 0.000146034
6 *397:A *50:10 4.18603e-06
7 *397:A *50:16 3.29226e-05
*RES
1 *360:X *397:A 12.48 
*END

*D_NET *25 0.00144923
*CONN
*I *388:A I *D sky130_fd_sc_hd__dlygate4sd3_1
*I *361:X O *D sky130_fd_sc_hd__mux2_1
*CAP
1 *388:A 0.000377534
2 *361:X 0.000377534
3 *388:A *361:A0 0.000163567
4 *388:A *361:A1 5.85675e-05
5 *388:A *361:S 8.52845e-05
6 *388:A *43:14 2.07184e-05
7 *388:A *43:16 0.000366021
*RES
1 *361:X *388:A 15.3 
*END

*D_NET *26 0.00107955
*CONN
*I *390:A I *D sky130_fd_sc_hd__dlygate4sd3_1
*I *362:X O *D sky130_fd_sc_hd__mux2_1
*CAP
1 *390:A 0.000314084
2 *362:X 0.000314084
3 *390:A *351:C 5.4003e-05
4 *390:A *362:A0 4.82863e-05
5 *390:A *378:D 0.000249921
6 *390:A *43:12 0
7 *390:A *46:12 2.66935e-05
8 *390:A *46:49 7.24779e-05
*RES
1 *362:X *390:A 13.59 
*END

*D_NET *27 0.00108265
*CONN
*I *399:A I *D sky130_fd_sc_hd__dlygate4sd3_1
*I *363:X O *D sky130_fd_sc_hd__mux2_1
*CAP
1 *399:A 0.000329101
2 *363:X 0.000329101
3 *399:A *363:A1 7.06865e-05
4 *399:A *364:S 0
5 *399:A *410:A 0.00011852
6 *399:A *43:8 0.000235238
*RES
1 *363:X *399:A 12.795 
*END

*D_NET *28 0.000609648
*CONN
*I *401:A I *D sky130_fd_sc_hd__dlygate4sd3_1
*I *364:X O *D sky130_fd_sc_hd__mux2_1
*CAP
1 *401:A 0.000280709
2 *364:X 0.000280709
3 *401:A *364:A0 4.82299e-05
4 *401:A *380:D 0
5 *401:A *46:90 0
*RES
1 *364:X *401:A 11.115 
*END

*D_NET *29 0.00989292
*CONN
*I *354:B1_N I *D sky130_fd_sc_hd__a21boi_1
*I *352:B1 I *D sky130_fd_sc_hd__o21ai_1
*I *349:A I *D sky130_fd_sc_hd__nand2_1
*I *340:A I *D sky130_fd_sc_hd__and3_1
*I *335:B I *D sky130_fd_sc_hd__and2b_1
*I *336:B1_N I *D sky130_fd_sc_hd__a21boi_1
*I *345:B1 I *D sky130_fd_sc_hd__o21ai_1
*I *344:A I *D sky130_fd_sc_hd__and3_1
*I *334:Y O *D sky130_fd_sc_hd__nand2b_2
*CAP
1 *354:B1_N 0.000296335
2 *352:B1 7.43573e-05
3 *349:A 0
4 *340:A 0
5 *335:B 3.61853e-05
6 *336:B1_N 6.93765e-05
7 *345:B1 6.93722e-05
8 *344:A 2.08101e-05
9 *334:Y 0
10 *29:56 0.000284283
11 *29:54 0.000716867
12 *29:35 0.000782492
13 *29:26 0.000848175
14 *29:20 0.00100705
15 *29:10 0.000957636
16 *29:6 0.000824956
17 *336:B1_N *47:38 5.92849e-05
18 *336:B1_N *48:43 0.000127064
19 *345:B1 *346:B1 2.49909e-05
20 *345:B1 *369:CLK 4.66108e-05
21 *345:B1 *377:CLK 3.23391e-05
22 *345:B1 *383:A 7.63204e-05
23 *345:B1 *51:14 7.30547e-05
24 *352:B1 *352:A2 0.00011964
25 *354:B1_N *40:23 0.000163199
26 *29:10 *334:A_N 0
27 *29:10 *334:B 0
28 *29:10 *352:A2 5.23362e-05
29 *29:10 *356:A_N 0
30 *29:10 *40:23 0
31 *29:10 *46:60 0
32 *29:10 *46:71 0
33 *29:10 *55:10 0
34 *29:20 *350:B 8.60912e-05
35 *29:20 *352:A2 0.00021275
36 *29:20 *38:12 0
37 *29:26 *344:C 7.23793e-05
38 *29:26 *34:29 0.000316806
39 *29:26 *34:42 0.000493607
40 *29:26 *34:46 0
41 *29:26 *38:12 0
42 *29:54 *340:B 3.86529e-05
43 *29:54 *341:A1 1.53032e-05
44 *29:54 *341:A2 0.000146091
45 *29:54 *342:C 0.000107634
46 *29:54 *345:A2 0.000254644
47 *29:54 *377:CLK 4.41506e-05
48 *29:54 *377:D 0
49 *29:54 *34:10 0.000332802
50 *29:54 *47:49 8.08153e-06
51 *29:54 *47:60 3.26909e-05
52 *29:54 *47:73 6.65973e-05
53 *29:54 *48:43 5.53249e-06
54 *29:54 *48:52 3.13459e-05
55 *29:54 *49:10 0.000160658
56 *29:56 *47:38 8.08153e-06
57 *29:56 *47:49 0.000166174
58 *29:56 *48:43 0.000302255
59 *370:D *29:20 0.000162325
60 *395:A *29:56 6.55328e-05
*RES
1 *334:Y *29:6 3.6 
2 *29:6 *29:10 10.775 
3 *29:10 *29:20 9.575 
4 *29:20 *29:26 15.32 
5 *29:26 *344:A 1.96 
6 *29:26 *29:35 1.83 
7 *29:35 *345:B1 7.685 
8 *29:35 *29:54 14.81 
9 *29:54 *29:56 6.225 
10 *29:56 *336:B1_N 5.685 
11 *29:56 *335:B 4.05 
12 *29:54 *340:A 3.6 
13 *29:20 *349:A 3.6 
14 *29:10 *352:B1 3.43 
15 *29:6 *354:B1_N 8.535 
*END

*D_NET *30 0.000992358
*CONN
*I *337:B1 I *D sky130_fd_sc_hd__o21a_1
*I *336:Y O *D sky130_fd_sc_hd__a21boi_1
*CAP
1 *337:B1 0.000157457
2 *336:Y 0.000157457
3 *337:B1 *337:A1 0.000309966
4 *337:B1 *337:A2 2.30292e-05
5 *337:B1 *365:CLK 0.000145515
6 *337:B1 *45:30 0.000198934
7 *365:D *337:B1 0
*RES
1 *336:Y *337:B1 11.79 
*END

*D_NET *31 0.000623809
*CONN
*I *340:B I *D sky130_fd_sc_hd__and3_1
*I *338:X O *D sky130_fd_sc_hd__a21o_1
*CAP
1 *340:B 0.000166057
2 *338:X 0.000166057
3 *340:B *338:A1 0.000161529
4 *340:B *338:A2 1.91597e-05
5 *340:B *47:60 7.23533e-05
6 *29:54 *340:B 3.86529e-05
*RES
1 *338:X *340:B 9.9 
*END

*D_NET *32 0.000258794
*CONN
*I *340:C I *D sky130_fd_sc_hd__and3_1
*I *339:Y O *D sky130_fd_sc_hd__nand3_1
*CAP
1 *340:C 9.1277e-05
2 *339:Y 9.1277e-05
3 *340:C *339:A 7.62405e-05
*RES
1 *339:Y *340:C 4.4 
*END

*D_NET *33 0.000568614
*CONN
*I *344:B I *D sky130_fd_sc_hd__and3_1
*I *341:X O *D sky130_fd_sc_hd__a31o_1
*CAP
1 *344:B 0.000176983
2 *341:X 0.000176983
3 *344:B *368:CLK 0
4 *344:B *376:CLK 4.99619e-05
5 *344:B *34:29 0.000164686
6 *382:A *344:B 0
*RES
1 *341:X *344:B 10.56 
*END

*D_NET *34 0.00639553
*CONN
*I *345:A2 I *D sky130_fd_sc_hd__o21ai_1
*I *348:C I *D sky130_fd_sc_hd__and3_1
*I *351:D I *D sky130_fd_sc_hd__and4_1
*I *347:A2 I *D sky130_fd_sc_hd__a21o_1
*I *346:A2 I *D sky130_fd_sc_hd__a21oi_1
*I *343:A I *D sky130_fd_sc_hd__inv_2
*I *342:X O *D sky130_fd_sc_hd__and4_2
*CAP
1 *345:A2 0.000161311
2 *348:C 2.33322e-05
3 *351:D 0.000158899
4 *347:A2 0
5 *346:A2 0
6 *343:A 0.000157468
7 *342:X 0.000161561
8 *34:46 0.000229425
9 *34:42 0.000434817
10 *34:29 0.000583443
11 *34:16 0.000670351
12 *34:10 0.000593271
13 *345:A2 *377:CLK 0.000158297
14 *345:A2 *383:A 0
15 *345:A2 *46:18 8.53113e-06
16 *351:D *351:A 0
17 *351:D *370:CLK 0.000201508
18 *351:D *384:A 9.50342e-06
19 *351:D *38:12 0.000131401
20 *351:D *46:49 3.83041e-05
21 *351:D *52:8 5.92191e-05
22 *34:10 *341:A1 2.68721e-05
23 *34:10 *383:A 0
24 *34:10 *50:10 0
25 *34:10 *50:16 4.99619e-05
26 *34:16 *50:10 0.000161529
27 *34:29 *344:C 0
28 *34:29 *368:CLK 0
29 *34:42 *346:A1 7.4027e-05
30 *34:42 *384:A 0
31 *34:46 *384:A 0.000231571
32 *34:46 *38:12 0.000140912
33 *344:B *34:29 0.000164686
34 *368:D *343:A 1.54049e-05
35 *368:D *34:29 0.000141606
36 *369:D *34:29 6.4422e-05
37 *382:A *34:29 0
38 *382:A *34:42 0
39 *397:A *34:10 0.000146034
40 *29:26 *34:29 0.000316806
41 *29:26 *34:42 0.000493607
42 *29:26 *34:46 0
43 *29:54 *345:A2 0.000254644
44 *29:54 *34:10 0.000332802
*RES
1 *342:X *34:10 7.98 
2 *34:10 *34:16 6.26 
3 *34:16 *343:A 3.79 
4 *34:16 *34:29 8.735 
5 *34:29 *346:A2 3.6 
6 *34:29 *34:42 9.545 
7 *34:42 *34:46 4.655 
8 *34:46 *347:A2 3.6 
9 *34:46 *351:D 7.41 
10 *34:42 *348:C 1.93 
11 *34:10 *345:A2 7.785 
*END

*D_NET *35 0.000631908
*CONN
*I *344:C I *D sky130_fd_sc_hd__and3_1
*I *343:Y O *D sky130_fd_sc_hd__inv_2
*CAP
1 *344:C 0.000279765
2 *343:Y 0.000279765
3 *368:D *344:C 0
4 *29:26 *344:C 7.23793e-05
5 *34:29 *344:C 0
*RES
1 *343:Y *344:C 11.49 
*END

*D_NET *36 0.000837466
*CONN
*I *346:B1 I *D sky130_fd_sc_hd__a21oi_1
*I *345:Y O *D sky130_fd_sc_hd__o21ai_1
*CAP
1 *346:B1 0.000260456
2 *345:Y 0.000260456
3 *346:B1 *369:CLK 1.19928e-05
4 *346:B1 *383:A 3.86529e-05
5 *346:B1 *384:A 5.55344e-05
6 *346:B1 *44:8 2.47313e-05
7 *346:B1 *51:14 0.000160651
8 *345:B1 *346:B1 2.49909e-05
*RES
1 *345:Y *346:B1 11.715 
*END

*D_NET *37 0.000220494
*CONN
*I *349:B I *D sky130_fd_sc_hd__nand2_1
*I *347:X O *D sky130_fd_sc_hd__a21o_1
*CAP
1 *349:B 0.000110247
2 *347:X 0.000110247
3 *349:B *347:B1 0
*RES
1 *347:X *349:B 4.7 
*END

*D_NET *38 0.00209704
*CONN
*I *350:A I *D sky130_fd_sc_hd__nor2_1
*I *352:A2 I *D sky130_fd_sc_hd__o21ai_1
*I *348:X O *D sky130_fd_sc_hd__and3_1
*CAP
1 *350:A 0
2 *352:A2 0.000323629
3 *348:X 0.000371391
4 *38:12 0.00069502
5 *352:A2 *353:B 4.99619e-05
6 *352:A2 *46:60 0
7 *38:12 *46:60 0
8 *351:D *38:12 0.000131401
9 *352:B1 *352:A2 0.00011964
10 *29:10 *352:A2 5.23362e-05
11 *29:20 *352:A2 0.00021275
12 *29:20 *38:12 0
13 *29:26 *38:12 0
14 *34:46 *38:12 0.000140912
*RES
1 *348:X *38:12 12.455 
2 *38:12 *352:A2 11.12 
3 *38:12 *350:A 1.6 
*END

*D_NET *39 0.000644682
*CONN
*I *350:B I *D sky130_fd_sc_hd__nor2_1
*I *349:Y O *D sky130_fd_sc_hd__nand2_1
*CAP
1 *350:B 0.000198133
2 *349:Y 0.000198133
3 *370:D *350:B 0.000162325
4 *29:20 *350:B 8.60912e-05
*RES
1 *349:Y *350:B 11.325 
*END

*D_NET *40 0.00300094
*CONN
*I *354:A2 I *D sky130_fd_sc_hd__a21boi_1
*I *355:A2 I *D sky130_fd_sc_hd__o21a_1
*I *353:A I *D sky130_fd_sc_hd__nor2_1
*I *351:X O *D sky130_fd_sc_hd__and4_1
*CAP
1 *354:A2 0
2 *355:A2 9.0093e-05
3 *353:A 0
4 *351:X 0.000211179
5 *40:23 0.00064976
6 *40:10 0.000770846
7 *355:A2 *354:A1 0.000117825
8 *355:A2 *46:90 0
9 *40:10 *351:C 0
10 *40:10 *370:CLK 1.83756e-05
11 *40:10 *46:49 1.83847e-05
12 *40:10 *46:60 0.000296088
13 *40:23 *334:B 0
14 *40:23 *351:C 0
15 *40:23 *356:A_N 0
16 *40:23 *363:A0 0
17 *40:23 *46:60 0.000200648
18 *40:23 *46:71 0.000383698
19 *40:23 *46:90 0
20 *40:23 *53:12 0
21 *354:B1_N *40:23 0.000163199
22 *371:D *40:23 8.08439e-05
23 *29:10 *40:23 0
*RES
1 *351:X *40:10 7.815 
2 *40:10 *353:A 3.6 
3 *40:10 *40:23 14.045 
4 *40:23 *355:A2 7.49 
5 *40:23 *354:A2 1.6 
*END

*D_NET *41 0.000385461
*CONN
*I *353:B I *D sky130_fd_sc_hd__nor2_1
*I *352:Y O *D sky130_fd_sc_hd__o21ai_1
*CAP
1 *353:B 0.000142467
2 *352:Y 0.000142467
3 *353:B *352:A1 5.05661e-05
4 *352:A2 *353:B 4.99619e-05
*RES
1 *352:Y *353:B 5.645 
*END

*D_NET *42 0.000534366
*CONN
*I *355:B1 I *D sky130_fd_sc_hd__o21a_1
*I *354:Y O *D sky130_fd_sc_hd__a21boi_1
*CAP
1 *355:B1 0.000218511
2 *354:Y 0.000218511
3 *355:B1 *354:A1 7.23533e-05
4 *355:B1 *46:90 0
5 *355:B1 *71:6 2.49909e-05
*RES
1 *354:Y *355:B1 10.17 
*END

*D_NET *43 0.0120532
*CONN
*I *364:S I *D sky130_fd_sc_hd__mux2_1
*I *363:S I *D sky130_fd_sc_hd__mux2_1
*I *362:S I *D sky130_fd_sc_hd__mux2_1
*I *361:S I *D sky130_fd_sc_hd__mux2_1
*I *360:S I *D sky130_fd_sc_hd__mux2_1
*I *359:S I *D sky130_fd_sc_hd__mux2_1
*I *358:S I *D sky130_fd_sc_hd__mux2_1
*I *357:S I *D sky130_fd_sc_hd__mux2_1
*I *356:Y O *D sky130_fd_sc_hd__nand2b_4
*CAP
1 *364:S 0.00080268
2 *363:S 0
3 *362:S 0
4 *361:S 6.44562e-05
5 *360:S 0
6 *359:S 5.0511e-05
7 *358:S 0.000532446
8 *357:S 6.08317e-05
9 *356:Y 0.000465978
10 *43:78 0.000834901
11 *43:24 0.00117089
12 *43:18 0.00104005
13 *43:16 0.000889231
14 *43:14 0.000758078
15 *43:12 0.000806198
16 *43:8 0.00108808
17 *357:S *357:A1 0.000118513
18 *358:S *373:CLK 3.94592e-05
19 *359:S *359:A1 4.77719e-05
20 *361:S *361:A1 3.64998e-06
21 *364:S *363:A1 0
22 *364:S *364:A1 0
23 *43:8 *356:A_N 9.02174e-05
24 *43:8 *363:A0 6.00685e-05
25 *43:12 *351:C 0
26 *43:12 *363:A1 9.50342e-06
27 *43:12 *409:A 0.000706113
28 *43:14 *409:A 6.85516e-05
29 *43:14 *78:10 7.23533e-05
30 *43:16 *360:A1 0.000288932
31 *43:16 *377:D 0
32 *43:16 *408:A 0.000179922
33 *43:16 *76:14 0
34 *43:16 *77:10 0.000300109
35 *43:18 *359:A1 0.000288244
36 *43:18 *360:A1 5.4003e-05
37 *43:18 *386:A 0
38 *43:18 *406:A 0
39 *43:24 *357:A0 9.95272e-05
40 *43:24 *357:A1 0.000177561
41 *43:24 *359:A1 2.92496e-05
42 *43:24 *406:A 0
43 *43:24 *47:23 0.00011741
44 counter_out[3] *43:16 0
45 counter_out[4] *43:14 1.17114e-05
46 counter_out[6] *364:S 1.39062e-05
47 *373:D *358:S 4.82319e-06
48 *388:A *361:S 8.52845e-05
49 *388:A *43:14 2.07184e-05
50 *388:A *43:16 0.000366021
51 *390:A *43:12 0
52 *399:A *364:S 0
53 *399:A *43:8 0.000235238
*RES
1 *356:Y *43:8 9.655 
2 *43:8 *43:12 14.345 
3 *43:12 *43:14 4.185 
4 *43:14 *43:16 12.345 
5 *43:16 *43:18 8.265 
6 *43:18 *43:24 11.625 
7 *43:24 *357:S 4.98 
8 *43:24 *358:S 9.495 
9 *43:18 *359:S 4.395 
10 *43:16 *360:S 3.6 
11 *43:14 *361:S 4.74 
12 *43:12 *362:S 3.6 
13 *43:8 *43:78 0.45 
14 *43:78 *363:S 1.6 
15 *43:78 *364:S 17.87 
*END

*D_NET *44 0.00452769
*CONN
*I *384:A I *D sky130_fd_sc_hd__clkbuf_16
*I *383:A I *D sky130_fd_sc_hd__clkbuf_16
*I *382:X O *D sky130_fd_sc_hd__clkbuf_16
*CAP
1 *384:A 0.000326768
2 *383:A 0.000347294
3 *382:X 0.000425778
4 *44:8 0.00109984
5 *383:A *341:A1 5.98004e-06
6 *383:A *377:CLK 0
7 *383:A *47:73 4.61658e-05
8 *383:A *50:10 0.00012904
9 *383:A *50:16 0.000187064
10 *383:A *51:14 1.61461e-05
11 *384:A *346:A1 0
12 *384:A *51:14 8.43291e-05
13 *384:A *51:34 0.00017562
14 *384:A *51:45 3.32209e-05
15 *384:A *52:8 2.23922e-05
16 *384:A *52:12 0.00013994
17 *345:A2 *383:A 0
18 *345:B1 *383:A 7.63204e-05
19 *346:B1 *383:A 3.86529e-05
20 *346:B1 *384:A 5.55344e-05
21 *346:B1 *44:8 2.47313e-05
22 *351:D *384:A 9.50342e-06
23 *382:A *383:A 0.000982564
24 *382:A *384:A 6.92392e-05
25 *34:10 *383:A 0
26 *34:42 *384:A 0
27 *34:46 *384:A 0.000231571
*RES
1 *382:X *44:8 8.19 
2 *44:8 *383:A 14.925 
3 *44:8 *384:A 12.63 
*END

*D_NET *45 0.0109751
*CONN
*I *385:A I *D sky130_fd_sc_hd__clkbuf_4
*I *368:CLK I *D sky130_fd_sc_hd__dfxtp_1
*I *376:CLK I *D sky130_fd_sc_hd__dfxtp_1
*I *367:CLK I *D sky130_fd_sc_hd__dfxtp_1
*I *375:CLK I *D sky130_fd_sc_hd__dfxtp_1
*I *366:CLK I *D sky130_fd_sc_hd__dfxtp_1
*I *365:CLK I *D sky130_fd_sc_hd__dfxtp_1
*I *373:CLK I *D sky130_fd_sc_hd__dfxtp_1
*I *374:CLK I *D sky130_fd_sc_hd__dfxtp_1
*I *383:X O *D sky130_fd_sc_hd__clkbuf_16
*CAP
1 *385:A 0
2 *368:CLK 0.000117852
3 *376:CLK 0.000579794
4 *367:CLK 0
5 *375:CLK 0.000603469
6 *366:CLK 0
7 *365:CLK 0.000209764
8 *373:CLK 0.000218121
9 *374:CLK 0.000303654
10 *383:X 0.000503281
11 *45:94 0.000871591
12 *45:34 0.00065689
13 *45:30 0.000784899
14 *45:24 0.000813527
15 *45:22 0.00109343
16 *45:20 0.00046549
17 *45:14 0.000736726
18 *45:12 0.000717023
19 *373:CLK *358:A0 0.000163204
20 *373:CLK *358:A1 0.00012657
21 *374:CLK *358:A0 3.09164e-05
22 *374:CLK *402:A 0
23 *375:CLK *375:D 4.82919e-05
24 *376:CLK *341:A2 0.000352312
25 *376:CLK *341:A3 2.75229e-05
26 *376:CLK *376:D 4.99619e-05
27 *45:12 *338:A2 1.19928e-05
28 *45:12 *341:A3 9.54399e-05
29 *45:12 *49:14 0.000200156
30 *45:34 *358:A0 0.000296782
31 *45:34 *48:8 6.21553e-05
32 *45:94 *341:A3 0
33 *337:B1 *365:CLK 0.000145515
34 *337:B1 *45:30 0.000198934
35 *344:B *368:CLK 0
36 *344:B *376:CLK 4.99619e-05
37 *358:S *373:CLK 3.94592e-05
38 *366:D *45:30 0
39 *368:D *368:CLK 4.18603e-06
40 *374:D *373:CLK 1.03423e-05
41 *374:D *374:CLK 0.000102245
42 *382:A *368:CLK 0
43 *382:A *45:12 9.37731e-05
44 *382:A *45:34 0.000189912
45 *382:A *45:94 0
46 *34:29 *368:CLK 0
*RES
1 *383:X *45:12 12.35 
2 *45:12 *45:14 2.865 
3 *45:14 *45:20 7.415 
4 *45:20 *45:22 1.89 
5 *45:22 *45:24 6.225 
6 *45:24 *45:30 8.825 
7 *45:30 *45:34 6.185 
8 *45:34 *374:CLK 8.7 
9 *45:34 *373:CLK 7.86 
10 *45:30 *365:CLK 4.825 
11 *45:24 *366:CLK 3.6 
12 *45:22 *375:CLK 12.33 
13 *45:20 *367:CLK 3.6 
14 *45:14 *45:94 4.91 
15 *45:94 *376:CLK 12.135 
16 *45:94 *368:CLK 5.235 
17 *45:12 *385:A 1.6 
*END

*D_NET *46 0.0110139
*CONN
*I *379:CLK I *D sky130_fd_sc_hd__dfxtp_1
*I *372:CLK I *D sky130_fd_sc_hd__dfxtp_1
*I *380:CLK I *D sky130_fd_sc_hd__dfxtp_1
*I *381:CLK I *D sky130_fd_sc_hd__dfxtp_1
*I *371:CLK I *D sky130_fd_sc_hd__dfxtp_1
*I *370:CLK I *D sky130_fd_sc_hd__dfxtp_1
*I *378:CLK I *D sky130_fd_sc_hd__dfxtp_1
*I *369:CLK I *D sky130_fd_sc_hd__dfxtp_1
*I *377:CLK I *D sky130_fd_sc_hd__dfxtp_1
*I *384:X O *D sky130_fd_sc_hd__clkbuf_16
*CAP
1 *379:CLK 0
2 *372:CLK 0.000452573
3 *380:CLK 0
4 *381:CLK 0.00049155
5 *371:CLK 0
6 *370:CLK 0.000344982
7 *378:CLK 0
8 *369:CLK 0.000337949
9 *377:CLK 0.00020359
10 *384:X 0.000110497
11 *46:90 0.000900262
12 *46:84 0.000601013
13 *46:71 0.000785531
14 *46:60 0.000435114
15 *46:49 0.000850182
16 *46:18 0.00098261
17 *46:12 0.000664389
18 *46:8 0.000544557
19 *369:CLK *345:A1 2.49909e-05
20 *369:CLK *51:6 2.49909e-05
21 *377:CLK *51:14 5.23362e-05
22 *381:CLK *381:D 1.43717e-05
23 *381:CLK *398:A 5.83121e-06
24 *46:12 *351:B 0
25 *46:12 *378:D 0
26 *46:12 *51:34 0
27 *46:12 *51:45 0
28 *46:18 *51:14 0.000319709
29 *46:18 *51:34 9.24127e-05
30 *46:49 *351:A 4.94404e-05
31 *46:49 *351:B 0
32 *46:49 *351:C 0.000179631
33 *46:60 *351:C 0
34 *46:71 *356:A_N 9.28444e-05
35 *46:84 *398:A 0.000188686
36 *46:90 *354:A1 0
37 *46:90 *379:D 0
38 *46:90 *380:D 0.000131772
39 *46:90 *54:10 0.000118527
40 *345:A2 *377:CLK 0.000158297
41 *345:A2 *46:18 8.53113e-06
42 *345:B1 *369:CLK 4.66108e-05
43 *345:B1 *377:CLK 3.23391e-05
44 *346:B1 *369:CLK 1.19928e-05
45 *351:D *370:CLK 0.000201508
46 *351:D *46:49 3.83041e-05
47 *352:A2 *46:60 0
48 *355:A2 *46:90 0
49 *355:B1 *46:90 0
50 *369:D *369:CLK 0.000276725
51 *370:D *370:CLK 0.000164377
52 *372:D *372:CLK 1.43717e-05
53 *383:A *377:CLK 0
54 *390:A *46:12 2.66935e-05
55 *390:A *46:49 7.24779e-05
56 *401:A *46:90 0
57 *29:10 *46:60 0
58 *29:10 *46:71 0
59 *29:54 *377:CLK 4.41506e-05
60 *38:12 *46:60 0
61 *40:10 *370:CLK 1.83756e-05
62 *40:10 *46:49 1.83847e-05
63 *40:10 *46:60 0.000296088
64 *40:23 *46:60 0.000200648
65 *40:23 *46:71 0.000383698
66 *40:23 *46:90 0
*RES
1 *384:X *46:8 4.74 
2 *46:8 *46:12 5.675 
3 *46:12 *46:18 10.745 
4 *46:18 *377:CLK 7.665 
5 *46:18 *369:CLK 9.57 
6 *46:12 *378:CLK 1.6 
7 *46:8 *46:49 7.175 
8 *46:49 *370:CLK 7.915 
9 *46:49 *46:60 8.48 
10 *46:60 *371:CLK 3.6 
11 *46:60 *46:71 6.44 
12 *46:71 *381:CLK 8.275 